
  xtb     01142213053D
 xtb: 6.4.1 (1a32961)
102110  0     0  0            999 V2000
   -0.8755   -1.9706   -0.4734 N   0  0  0  0  0  0  0  0  0  0  0  0
   -2.1057   -1.4559   -0.6543 C   0  0  0  0  0  0  0  0  0  0  0  0
   -2.9126   -1.8770   -1.7173 C   0  0  0  0  0  0  0  0  0  0  0  0
   -2.4549   -2.8457   -2.5838 C   0  0  0  0  0  0  0  0  0  0  0  0
   -1.1876   -3.3818   -2.3738 C   0  0  0  0  0  0  0  0  0  0  0  0
   -0.4441   -2.9054   -1.3145 C   0  0  0  0  0  0  0  0  0  0  0  0
    0.5472   -3.2877   -1.1150 H   0  0  0  0  0  0  0  0  0  0  0  0
   -0.7915   -4.1468   -3.0218 H   0  0  0  0  0  0  0  0  0  0  0  0
   -3.8856   -1.4406   -1.8735 H   0  0  0  0  0  0  0  0  0  0  0  0
   -2.5331   -0.4454    0.3073 C   0  0  0  0  0  0  0  0  0  0  0  0
   -1.6014   -0.0025    1.1768 N   0  0  0  0  0  0  0  0  0  0  0  0
   -1.9547    0.9004    2.0873 C   0  0  0  0  0  0  0  0  0  0  0  0
   -3.2299    1.4177    2.1937 C   0  0  0  0  0  0  0  0  0  0  0  0
   -4.2020    0.9737    1.3024 C   0  0  0  0  0  0  0  0  0  0  0  0
   -3.8456    0.0379    0.3549 C   0  0  0  0  0  0  0  0  0  0  0  0
   -4.5887   -0.3322   -0.3320 H   0  0  0  0  0  0  0  0  0  0  0  0
   -3.4611    2.1411    2.9587 H   0  0  0  0  0  0  0  0  0  0  0  0
   -1.1649    1.2195    2.7502 H   0  0  0  0  0  0  0  0  0  0  0  0
    0.4215   -0.8165    0.9133 Ir  0  0  0  0  0  0  0  0  0  0  0  0
    0.8726   -2.2303    1.5405 H   0  0  0  0  0  0  0  0  0  0  0  0
    0.4244    0.6372   -0.5897 B   0  0  0  0  0  0  0  0  0  0  0  0
   -0.2889    0.4286   -1.7587 O   0  0  0  0  0  0  0  0  0  0  0  0
   -0.3681    1.6460   -2.5077 C   0  0  0  0  0  0  0  0  0  0  0  0
   -0.2300    1.3464   -3.9979 C   0  0  0  0  0  0  0  0  0  0  0  0
    0.6546    0.7488   -4.1911 H   0  0  0  0  0  0  0  0  0  0  0  0
   -0.1747    2.2745   -4.5611 H   0  0  0  0  0  0  0  0  0  0  0  0
   -1.0993    0.7838   -4.3303 H   0  0  0  0  0  0  0  0  0  0  0  0
   -1.7562    2.2453   -2.2386 C   0  0  0  0  0  0  0  0  0  0  0  0
   -1.9118    3.1535   -2.8135 H   0  0  0  0  0  0  0  0  0  0  0  0
   -2.5110    1.5132   -2.5197 H   0  0  0  0  0  0  0  0  0  0  0  0
   -1.8719    2.4563   -1.1774 H   0  0  0  0  0  0  0  0  0  0  0  0
    0.7888    2.4986   -1.8922 C   0  0  0  0  0  0  0  0  0  0  0  0
    0.9515    1.9075   -0.5957 O   0  0  0  0  0  0  0  0  0  0  0  0
    2.1169    2.3073   -2.6344 C   0  0  0  0  0  0  0  0  0  0  0  0
    2.3590    1.2476   -2.6620 H   0  0  0  0  0  0  0  0  0  0  0  0
    2.0731    2.7169   -3.6394 H   0  0  0  0  0  0  0  0  0  0  0  0
    2.9030    2.8131   -2.0788 H   0  0  0  0  0  0  0  0  0  0  0  0
    0.4894    3.9898   -1.7520 C   0  0  0  0  0  0  0  0  0  0  0  0
   -0.3341    4.1620   -1.0658 H   0  0  0  0  0  0  0  0  0  0  0  0
    1.3689    4.4949   -1.3594 H   0  0  0  0  0  0  0  0  0  0  0  0
    0.2474    4.4138   -2.7233 H   0  0  0  0  0  0  0  0  0  0  0  0
    1.5324    0.6783    1.8492 B   0  0  0  0  0  0  0  0  0  0  0  0
    2.8954    0.8215    1.9004 O   0  0  0  0  0  0  0  0  0  0  0  0
    3.2453    2.0948    2.4621 C   0  0  0  0  0  0  0  0  0  0  0  0
    4.4191    1.9201    3.4253 C   0  0  0  0  0  0  0  0  0  0  0  0
    4.1972    1.1716    4.1787 H   0  0  0  0  0  0  0  0  0  0  0  0
    5.2898    1.5878    2.8655 H   0  0  0  0  0  0  0  0  0  0  0  0
    4.6522    2.8658    3.9068 H   0  0  0  0  0  0  0  0  0  0  0  0
    3.6742    2.9831    1.2881 C   0  0  0  0  0  0  0  0  0  0  0  0
    3.9262    3.9869    1.6162 H   0  0  0  0  0  0  0  0  0  0  0  0
    4.5467    2.5364    0.8167 H   0  0  0  0  0  0  0  0  0  0  0  0
    2.8729    3.0089    0.5547 H   0  0  0  0  0  0  0  0  0  0  0  0
    1.9058    2.5635    3.1330 C   0  0  0  0  0  0  0  0  0  0  0  0
    0.9261    1.7098    2.5266 O   0  0  0  0  0  0  0  0  0  0  0  0
    1.5281    4.0190    2.8577 C   0  0  0  0  0  0  0  0  0  0  0  0
    1.3776    4.1768    1.7949 H   0  0  0  0  0  0  0  0  0  0  0  0
    0.5967    4.2469    3.3701 H   0  0  0  0  0  0  0  0  0  0  0  0
    2.3026    4.6868    3.2245 H   0  0  0  0  0  0  0  0  0  0  0  0
    1.8564    2.3060    4.6447 C   0  0  0  0  0  0  0  0  0  0  0  0
    2.0299    1.2536    4.8535 H   0  0  0  0  0  0  0  0  0  0  0  0
    2.5866    2.9148    5.1687 H   0  0  0  0  0  0  0  0  0  0  0  0
    0.8627    2.5582    5.0086 H   0  0  0  0  0  0  0  0  0  0  0  0
    2.2782   -1.3309    0.1741 B   0  0  0  0  0  0  0  0  0  0  0  0
    3.1576   -2.2140    0.7642 O   0  0  0  0  0  0  0  0  0  0  0  0
    4.4294   -2.1700    0.1048 C   0  0  0  0  0  0  0  0  0  0  0  0
    5.3529   -1.3303    0.9939 C   0  0  0  0  0  0  0  0  0  0  0  0
    4.8884   -0.3643    1.1692 H   0  0  0  0  0  0  0  0  0  0  0  0
    5.4533   -1.8304    1.9538 H   0  0  0  0  0  0  0  0  0  0  0  0
    6.3364   -1.2122    0.5499 H   0  0  0  0  0  0  0  0  0  0  0  0
    4.9923   -3.5865   -0.0126 C   0  0  0  0  0  0  0  0  0  0  0  0
    5.1716   -3.9741    0.9867 H   0  0  0  0  0  0  0  0  0  0  0  0
    5.9310   -3.5713   -0.5594 H   0  0  0  0  0  0  0  0  0  0  0  0
    4.2935   -4.2511   -0.5094 H   0  0  0  0  0  0  0  0  0  0  0  0
    4.0896   -1.4749   -1.2611 C   0  0  0  0  0  0  0  0  0  0  0  0
    2.8161   -0.8630   -1.0034 O   0  0  0  0  0  0  0  0  0  0  0  0
    5.0816   -0.3961   -1.6932 C   0  0  0  0  0  0  0  0  0  0  0  0
    6.0793   -0.8156   -1.7887 H   0  0  0  0  0  0  0  0  0  0  0  0
    4.7757    0.0043   -2.6564 H   0  0  0  0  0  0  0  0  0  0  0  0
    5.0898    0.4170   -0.9757 H   0  0  0  0  0  0  0  0  0  0  0  0
    3.8926   -2.4666   -2.4157 C   0  0  0  0  0  0  0  0  0  0  0  0
    3.1621   -3.2230   -2.1423 H   0  0  0  0  0  0  0  0  0  0  0  0
    3.5084   -1.9256   -3.2771 H   0  0  0  0  0  0  0  0  0  0  0  0
    4.8308   -2.9417   -2.6854 H   0  0  0  0  0  0  0  0  0  0  0  0
   -3.0665   -3.1784   -3.4087 H   0  0  0  0  0  0  0  0  0  0  0  0
   -5.2138    1.3461    1.3539 H   0  0  0  0  0  0  0  0  0  0  0  0
    0.2359   -1.6814    2.9603 C   0  0  0  0  0  0  0  0  0  0  0  0
   -0.9571   -2.2124    3.4271 C   0  0  0  0  0  0  0  0  0  0  0  0
    1.2109   -1.3826    3.9344 C   0  0  0  0  0  0  0  0  0  0  0  0
   -2.1753   -2.8350    2.3477 Cl  0  0  0  0  0  0  0  0  0  0  0  0
   -1.1946   -2.3033    4.7979 C   0  0  0  0  0  0  0  0  0  0  0  0
    1.0501   -1.4615    5.2426 N   0  0  0  0  0  0  0  0  0  0  0  0
    2.1940   -1.0765    3.6080 H   0  0  0  0  0  0  0  0  0  0  0  0
   -0.1377   -1.8885    5.6504 C   0  0  0  0  0  0  0  0  0  0  0  0
   -2.2450   -2.7441    5.6461 C   0  0  0  0  0  0  0  0  0  0  0  0
   -0.5457   -2.0684    6.9340 N   0  0  0  0  0  0  0  0  0  0  0  0
   -1.8181   -2.5859    6.9353 C   0  0  0  0  0  0  0  0  0  0  0  0
   -3.1940   -3.1267    5.3269 H   0  0  0  0  0  0  0  0  0  0  0  0
    0.0093   -1.8669    7.7487 H   0  0  0  0  0  0  0  0  0  0  0  0
   -2.5115   -2.8929    8.2136 C   0  0  0  0  0  0  0  0  0  0  0  0
   -3.5125   -3.2614    8.0109 H   0  0  0  0  0  0  0  0  0  0  0  0
   -2.5826   -2.0011    8.8349 H   0  0  0  0  0  0  0  0  0  0  0  0
   -1.9643   -3.6531    8.7702 H   0  0  0  0  0  0  0  0  0  0  0  0
  1  2  4  0  0  0  0
  2  3  4  0  0  0  0
  3  4  4  0  0  0  0
  4  5  4  0  0  0  0
  1  6  4  0  0  0  0
  5  6  4  0  0  0  0
  6  7  1  0  0  0  0
  5  8  1  0  0  0  0
  3  9  1  0  0  0  0
  2 10  1  0  0  0  0
 10 11  4  0  0  0  0
 11 12  4  0  0  0  0
 12 13  4  0  0  0  0
 13 14  4  0  0  0  0
 10 15  4  0  0  0  0
 14 15  4  0  0  0  0
 15 16  1  0  0  0  0
 13 17  1  0  0  0  0
 12 18  1  0  0  0  0
  1 19  1  0  0  0  0
 11 19  1  0  0  0  0
 19 20  1  0  0  0  0
 19 21  1  0  0  0  0
 21 22  1  0  0  0  0
 22 23  1  0  0  0  0
 23 24  1  0  0  0  0
 24 25  1  0  0  0  0
 24 26  1  0  0  0  0
 24 27  1  0  0  0  0
 23 28  1  0  0  0  0
 28 29  1  0  0  0  0
 28 30  1  0  0  0  0
 28 31  1  0  0  0  0
 23 32  1  0  0  0  0
 21 33  1  0  0  0  0
 32 33  1  0  0  0  0
 32 34  1  0  0  0  0
 34 35  1  0  0  0  0
 34 36  1  0  0  0  0
 34 37  1  0  0  0  0
 32 38  1  0  0  0  0
 38 39  1  0  0  0  0
 38 40  1  0  0  0  0
 38 41  1  0  0  0  0
 19 42  1  0  0  0  0
 42 43  1  0  0  0  0
 43 44  1  0  0  0  0
 44 45  1  0  0  0  0
 45 46  1  0  0  0  0
 45 47  1  0  0  0  0
 45 48  1  0  0  0  0
 44 49  1  0  0  0  0
 49 50  1  0  0  0  0
 49 51  1  0  0  0  0
 49 52  1  0  0  0  0
 44 53  1  0  0  0  0
 42 54  1  0  0  0  0
 53 54  1  0  0  0  0
 53 55  1  0  0  0  0
 55 56  1  0  0  0  0
 55 57  1  0  0  0  0
 55 58  1  0  0  0  0
 53 59  1  0  0  0  0
 59 60  1  0  0  0  0
 59 61  1  0  0  0  0
 59 62  1  0  0  0  0
 19 63  1  0  0  0  0
 63 64  1  0  0  0  0
 64 65  1  0  0  0  0
 65 66  1  0  0  0  0
 66 67  1  0  0  0  0
 66 68  1  0  0  0  0
 66 69  1  0  0  0  0
 65 70  1  0  0  0  0
 70 71  1  0  0  0  0
 70 72  1  0  0  0  0
 70 73  1  0  0  0  0
 65 74  1  0  0  0  0
 63 75  1  0  0  0  0
 74 75  1  0  0  0  0
 74 76  1  0  0  0  0
 76 77  1  0  0  0  0
 76 78  1  0  0  0  0
 76 79  1  0  0  0  0
 74 80  1  0  0  0  0
 80 81  1  0  0  0  0
 80 82  1  0  0  0  0
 80 83  1  0  0  0  0
  4 84  1  0  0  0  0
 14 85  1  0  0  0  0
 19 86  1  0  0  0  0
 20 86  1  0  0  0  0
 86 87  4  0  0  0  0
 86 88  4  0  0  0  0
 87 89  1  0  0  0  0
 87 90  4  0  0  0  0
 88 91  4  0  0  0  0
 88 92  1  0  0  0  0
 90 93  4  0  0  0  0
 91 93  4  0  0  0  0
 90 94  4  0  0  0  0
 93 95  1  0  0  0  0
 94 96  2  0  0  0  0
 95 96  1  0  0  0  0
 94 97  1  0  0  0  0
 95 98  1  0  0  0  0
 96 99  1  0  0  0  0
 99100  1  0  0  0  0
 99101  1  0  0  0  0
 99102  1  0  0  0  0
M  END
