    9
Created with kallisto
C      1.3192    0.5853    0.0013
C      0.1580    1.3341    0.0083
C      1.2023   -0.7967   -0.0067
N     -1.0687    0.7738    0.0087
H      0.1740    2.4176    0.0145
C     -0.0674   -1.3404   -0.0030
H      2.0786   -1.4344   -0.0157
N     -1.1832   -0.5827    0.0043
H     -0.2332   -2.4117   -0.0042
