
  xtb     10082107183D
 xtb: 6.4.0 (f63f532)
106114  0     0  0            999 V2000
   -0.8692   -1.9408   -0.4624 N   0  0  0  0  0  0  0  0  0  0  0  0
   -2.1213   -1.4596   -0.6101 C   0  0  0  0  0  0  0  0  0  0  0  0
   -2.9472   -1.9037   -1.6509 C   0  0  0  0  0  0  0  0  0  0  0  0
   -2.4869   -2.8516   -2.5363 C   0  0  0  0  0  0  0  0  0  0  0  0
   -1.1953   -3.3488   -2.3657 C   0  0  0  0  0  0  0  0  0  0  0  0
   -0.4378   -2.8603   -1.3240 C   0  0  0  0  0  0  0  0  0  0  0  0
    0.5693   -3.2156   -1.1563 H   0  0  0  0  0  0  0  0  0  0  0  0
   -0.7947   -4.0951   -3.0326 H   0  0  0  0  0  0  0  0  0  0  0  0
   -3.9383   -1.4978   -1.7736 H   0  0  0  0  0  0  0  0  0  0  0  0
   -2.5351   -0.4486    0.3494 C   0  0  0  0  0  0  0  0  0  0  0  0
   -1.5825   -0.0015    1.1974 N   0  0  0  0  0  0  0  0  0  0  0  0
   -1.9095    0.9331    2.0882 C   0  0  0  0  0  0  0  0  0  0  0  0
   -3.1744    1.4704    2.2000 C   0  0  0  0  0  0  0  0  0  0  0  0
   -4.1709    1.0137    1.3385 C   0  0  0  0  0  0  0  0  0  0  0  0
   -3.8429    0.0522    0.4090 C   0  0  0  0  0  0  0  0  0  0  0  0
   -4.6004   -0.3206   -0.2609 H   0  0  0  0  0  0  0  0  0  0  0  0
   -3.3840    2.2209    2.9452 H   0  0  0  0  0  0  0  0  0  0  0  0
   -1.1031    1.2566    2.7284 H   0  0  0  0  0  0  0  0  0  0  0  0
    0.4215   -0.8165    0.9133 Ir  0  0  0  0  0  0  0  0  0  0  0  0
    0.8726   -2.2303    1.5405 H   0  0  0  0  0  0  0  0  0  0  0  0
    0.4042    0.6866   -0.5429 B   0  0  0  0  0  0  0  0  0  0  0  0
   -0.3140    0.5086   -1.7164 O   0  0  0  0  0  0  0  0  0  0  0  0
   -0.4519    1.7571   -2.3998 C   0  0  0  0  0  0  0  0  0  0  0  0
   -0.3306    1.5413   -3.9063 C   0  0  0  0  0  0  0  0  0  0  0  0
    0.5725    0.9899   -4.1462 H   0  0  0  0  0  0  0  0  0  0  0  0
   -0.3224    2.4987   -4.4215 H   0  0  0  0  0  0  0  0  0  0  0  0
   -1.1837    0.9624   -4.2530 H   0  0  0  0  0  0  0  0  0  0  0  0
   -1.8566    2.2897   -2.0782 C   0  0  0  0  0  0  0  0  0  0  0  0
   -2.0558    3.2200   -2.6021 H   0  0  0  0  0  0  0  0  0  0  0  0
   -2.5893    1.5454   -2.3849 H   0  0  0  0  0  0  0  0  0  0  0  0
   -1.9610    2.4415   -1.0056 H   0  0  0  0  0  0  0  0  0  0  0  0
    0.6816    2.6215   -1.7587 C   0  0  0  0  0  0  0  0  0  0  0  0
    0.8827    1.9775   -0.4947 O   0  0  0  0  0  0  0  0  0  0  0  0
    2.0054    2.5153   -2.5260 C   0  0  0  0  0  0  0  0  0  0  0  0
    2.2831    1.4676   -2.6149 H   0  0  0  0  0  0  0  0  0  0  0  0
    1.9340    2.9764   -3.5070 H   0  0  0  0  0  0  0  0  0  0  0  0
    2.7817    3.0167   -1.9525 H   0  0  0  0  0  0  0  0  0  0  0  0
    0.3305    4.0928   -1.5456 C   0  0  0  0  0  0  0  0  0  0  0  0
   -0.4925    4.2027   -0.8461 H   0  0  0  0  0  0  0  0  0  0  0  0
    1.1950    4.6097   -1.1356 H   0  0  0  0  0  0  0  0  0  0  0  0
    0.0649    4.5530   -2.4939 H   0  0  0  0  0  0  0  0  0  0  0  0
    1.5682    0.6037    1.9316 B   0  0  0  0  0  0  0  0  0  0  0  0
    2.9404    0.7132    1.9697 O   0  0  0  0  0  0  0  0  0  0  0  0
    3.3190    1.9760    2.5335 C   0  0  0  0  0  0  0  0  0  0  0  0
    4.5573    1.8061    3.4125 C   0  0  0  0  0  0  0  0  0  0  0  0
    4.4115    1.0203    4.1460 H   0  0  0  0  0  0  0  0  0  0  0  0
    5.4036    1.5327    2.7876 H   0  0  0  0  0  0  0  0  0  0  0  0
    4.7846    2.7400    3.9200 H   0  0  0  0  0  0  0  0  0  0  0  0
    3.6488    2.9011    1.3555 C   0  0  0  0  0  0  0  0  0  0  0  0
    3.9339    3.8931    1.6934 H   0  0  0  0  0  0  0  0  0  0  0  0
    4.4734    2.4676    0.7939 H   0  0  0  0  0  0  0  0  0  0  0  0
    2.7862    2.9516    0.6961 H   0  0  0  0  0  0  0  0  0  0  0  0
    2.0234    2.4101    3.2973 C   0  0  0  0  0  0  0  0  0  0  0  0
    1.0045    1.6313    2.6604 O   0  0  0  0  0  0  0  0  0  0  0  0
    1.6735    3.8927    3.1835 C   0  0  0  0  0  0  0  0  0  0  0  0
    1.4732    4.1579    2.1509 H   0  0  0  0  0  0  0  0  0  0  0  0
    0.7781    4.0932    3.7669 H   0  0  0  0  0  0  0  0  0  0  0  0
    2.4871    4.5015    3.5689 H   0  0  0  0  0  0  0  0  0  0  0  0
    2.0392    2.0055    4.7768 C   0  0  0  0  0  0  0  0  0  0  0  0
    2.2415    0.9417    4.8696 H   0  0  0  0  0  0  0  0  0  0  0  0
    2.7793    2.5726    5.3329 H   0  0  0  0  0  0  0  0  0  0  0  0
    1.0566    2.1959    5.2014 H   0  0  0  0  0  0  0  0  0  0  0  0
    2.2782   -1.3309    0.1741 B   0  0  0  0  0  0  0  0  0  0  0  0
    3.1339   -2.2934    0.6698 O   0  0  0  0  0  0  0  0  0  0  0  0
    4.4041   -2.2225    0.0107 C   0  0  0  0  0  0  0  0  0  0  0  0
    5.3547   -1.4992    0.9711 C   0  0  0  0  0  0  0  0  0  0  0  0
    4.9154   -0.5445    1.2457 H   0  0  0  0  0  0  0  0  0  0  0  0
    5.4499   -2.0956    1.8749 H   0  0  0  0  0  0  0  0  0  0  0  0
    6.3380   -1.3609    0.5321 H   0  0  0  0  0  0  0  0  0  0  0  0
    4.9255   -3.6364   -0.2476 C   0  0  0  0  0  0  0  0  0  0  0  0
    5.0986   -4.1254    0.7073 H   0  0  0  0  0  0  0  0  0  0  0  0
    5.8615   -3.5943   -0.7977 H   0  0  0  0  0  0  0  0  0  0  0  0
    4.2054   -4.2287   -0.8022 H   0  0  0  0  0  0  0  0  0  0  0  0
    4.0829   -1.3882   -1.2796 C   0  0  0  0  0  0  0  0  0  0  0  0
    2.8311   -0.7678   -0.9568 O   0  0  0  0  0  0  0  0  0  0  0  0
    5.1053   -0.3025   -1.6132 C   0  0  0  0  0  0  0  0  0  0  0  0
    6.0875   -0.7403   -1.7690 H   0  0  0  0  0  0  0  0  0  0  0  0
    4.7983    0.2057   -2.5241 H   0  0  0  0  0  0  0  0  0  0  0  0
    5.1498    0.4316   -0.8162 H   0  0  0  0  0  0  0  0  0  0  0  0
    3.8536   -2.2567   -2.5246 C   0  0  0  0  0  0  0  0  0  0  0  0
    3.0995   -3.0123   -2.3228 H   0  0  0  0  0  0  0  0  0  0  0  0
    3.4848   -1.6219   -3.3268 H   0  0  0  0  0  0  0  0  0  0  0  0
    4.7756   -2.7325   -2.8450 H   0  0  0  0  0  0  0  0  0  0  0  0
   -3.1110   -3.1988   -3.3459 H   0  0  0  0  0  0  0  0  0  0  0  0
   -5.1767    1.4015    1.3986 H   0  0  0  0  0  0  0  0  0  0  0  0
    0.2359   -1.6814    2.9603 C   0  0  0  0  0  0  0  0  0  0  0  0
   -1.0158   -2.0223    3.5330 C   0  0  0  0  0  0  0  0  0  0  0  0
    1.1464   -1.7443    3.9900 C   0  0  0  0  0  0  0  0  0  0  0  0
   -0.8168   -2.2314    4.8718 C   0  0  0  0  0  0  0  0  0  0  0  0
   -1.9585   -2.1057    3.0251 H   0  0  0  0  0  0  0  0  0  0  0  0
    0.5050   -2.0675    5.1471 N   0  0  0  0  0  0  0  0  0  0  0  0
    2.2064   -1.5910    3.9623 H   0  0  0  0  0  0  0  0  0  0  0  0
   -1.5162   -2.5009    5.6406 H   0  0  0  0  0  0  0  0  0  0  0  0
    1.1289   -2.2423    6.4288 C   0  0  0  0  0  0  0  0  0  0  0  0
    1.2670   -0.9637    7.2235 C   0  0  0  0  0  0  0  0  0  0  0  0
    0.5329   -2.9496    7.0165 H   0  0  0  0  0  0  0  0  0  0  0  0
    2.1270   -2.6684    6.2982 H   0  0  0  0  0  0  0  0  0  0  0  0
    2.3345   -0.8904    8.0089 N   0  0  0  0  0  0  0  0  0  0  0  0
    0.3194    0.0519    7.1553 C   0  0  0  0  0  0  0  0  0  0  0  0
    2.4971    0.1861    8.7595 C   0  0  0  0  0  0  0  0  0  0  0  0
    0.4961    1.1760    7.9442 C   0  0  0  0  0  0  0  0  0  0  0  0
   -0.5270   -0.0407    6.4928 H   0  0  0  0  0  0  0  0  0  0  0  0
    1.6077    1.2489    8.7702 C   0  0  0  0  0  0  0  0  0  0  0  0
    3.3856    0.1881    9.3774 H   0  0  0  0  0  0  0  0  0  0  0  0
   -0.2230    1.9817    7.9175 H   0  0  0  0  0  0  0  0  0  0  0  0
    1.7814    2.1059    9.4011 H   0  0  0  0  0  0  0  0  0  0  0  0
  1  2  4  0  0  0  0
  2  3  4  0  0  0  0
  3  4  4  0  0  0  0
  4  5  4  0  0  0  0
  1  6  4  0  0  0  0
  5  6  4  0  0  0  0
  6  7  1  0  0  0  0
  5  8  1  0  0  0  0
  3  9  1  0  0  0  0
  2 10  1  0  0  0  0
 10 11  4  0  0  0  0
 11 12  4  0  0  0  0
 12 13  4  0  0  0  0
 13 14  4  0  0  0  0
 10 15  4  0  0  0  0
 14 15  4  0  0  0  0
 15 16  1  0  0  0  0
 13 17  1  0  0  0  0
 12 18  1  0  0  0  0
  1 19  1  0  0  0  0
 11 19  1  0  0  0  0
 19 20  1  0  0  0  0
 19 21  1  0  0  0  0
 21 22  1  0  0  0  0
 22 23  1  0  0  0  0
 23 24  1  0  0  0  0
 24 25  1  0  0  0  0
 24 26  1  0  0  0  0
 24 27  1  0  0  0  0
 23 28  1  0  0  0  0
 28 29  1  0  0  0  0
 28 30  1  0  0  0  0
 28 31  1  0  0  0  0
 23 32  1  0  0  0  0
 21 33  1  0  0  0  0
 32 33  1  0  0  0  0
 32 34  1  0  0  0  0
 34 35  1  0  0  0  0
 34 36  1  0  0  0  0
 34 37  1  0  0  0  0
 32 38  1  0  0  0  0
 38 39  1  0  0  0  0
 38 40  1  0  0  0  0
 38 41  1  0  0  0  0
 19 42  1  0  0  0  0
 42 43  1  0  0  0  0
 43 44  1  0  0  0  0
 44 45  1  0  0  0  0
 45 46  1  0  0  0  0
 45 47  1  0  0  0  0
 45 48  1  0  0  0  0
 44 49  1  0  0  0  0
 49 50  1  0  0  0  0
 49 51  1  0  0  0  0
 49 52  1  0  0  0  0
 44 53  1  0  0  0  0
 42 54  1  0  0  0  0
 53 54  1  0  0  0  0
 53 55  1  0  0  0  0
 55 56  1  0  0  0  0
 55 57  1  0  0  0  0
 55 58  1  0  0  0  0
 53 59  1  0  0  0  0
 59 60  1  0  0  0  0
 59 61  1  0  0  0  0
 59 62  1  0  0  0  0
 19 63  1  0  0  0  0
 63 64  1  0  0  0  0
 64 65  1  0  0  0  0
 65 66  1  0  0  0  0
 66 67  1  0  0  0  0
 66 68  1  0  0  0  0
 66 69  1  0  0  0  0
 65 70  1  0  0  0  0
 70 71  1  0  0  0  0
 70 72  1  0  0  0  0
 70 73  1  0  0  0  0
 65 74  1  0  0  0  0
 63 75  1  0  0  0  0
 74 75  1  0  0  0  0
 74 76  1  0  0  0  0
 76 77  1  0  0  0  0
 76 78  1  0  0  0  0
 76 79  1  0  0  0  0
 74 80  1  0  0  0  0
 80 81  1  0  0  0  0
 80 82  1  0  0  0  0
 80 83  1  0  0  0  0
  4 84  1  0  0  0  0
 14 85  1  0  0  0  0
 19 86  1  0  0  0  0
 20 86  1  0  0  0  0
 86 87  4  0  0  0  0
 86 88  4  0  0  0  0
 87 89  2  0  0  0  0
 87 90  1  0  0  0  0
 88 91  4  0  0  0  0
 89 91  4  0  0  0  0
 88 92  1  0  0  0  0
 89 93  1  0  0  0  0
 91 94  1  0  0  0  0
 94 95  1  0  0  0  0
 94 96  1  0  0  0  0
 94 97  1  0  0  0  0
 95 98  4  0  0  0  0
 95 99  4  0  0  0  0
 98100  4  0  0  0  0
 99101  4  0  0  0  0
 99102  1  0  0  0  0
100103  4  0  0  0  0
101103  4  0  0  0  0
100104  1  0  0  0  0
101105  1  0  0  0  0
103106  1  0  0  0  0
M  END
