
  xtb     01142214373D
 xtb: 6.4.1 (1a32961)
125134  0     0  0            999 V2000
   -0.8747   -1.9321   -0.4901 N   0  0  0  0  0  0  0  0  0  0  0  0
   -2.1303   -1.4594   -0.6239 C   0  0  0  0  0  0  0  0  0  0  0  0
   -2.9667   -1.9170   -1.6505 C   0  0  0  0  0  0  0  0  0  0  0  0
   -2.5109   -2.8668   -2.5369 C   0  0  0  0  0  0  0  0  0  0  0  0
   -1.2128   -3.3499   -2.3838 C   0  0  0  0  0  0  0  0  0  0  0  0
   -0.4457   -2.8494   -1.3538 C   0  0  0  0  0  0  0  0  0  0  0  0
    0.5675   -3.1922   -1.2003 H   0  0  0  0  0  0  0  0  0  0  0  0
   -0.8141   -4.0955   -3.0523 H   0  0  0  0  0  0  0  0  0  0  0  0
   -3.9641   -1.5241   -1.7614 H   0  0  0  0  0  0  0  0  0  0  0  0
   -2.5435   -0.4456    0.3354 C   0  0  0  0  0  0  0  0  0  0  0  0
   -1.5987   -0.0100    1.1963 N   0  0  0  0  0  0  0  0  0  0  0  0
   -1.9287    0.9233    2.0867 C   0  0  0  0  0  0  0  0  0  0  0  0
   -3.1888    1.4758    2.1818 C   0  0  0  0  0  0  0  0  0  0  0  0
   -4.1763    1.0351    1.3033 C   0  0  0  0  0  0  0  0  0  0  0  0
   -3.8457    0.0708    0.3771 C   0  0  0  0  0  0  0  0  0  0  0  0
   -4.5981   -0.2884   -0.3056 H   0  0  0  0  0  0  0  0  0  0  0  0
   -3.4003    2.2244    2.9282 H   0  0  0  0  0  0  0  0  0  0  0  0
   -1.1302    1.2355    2.7419 H   0  0  0  0  0  0  0  0  0  0  0  0
    0.4215   -0.8165    0.9133 Ir  0  0  0  0  0  0  0  0  0  0  0  0
    0.8726   -2.2303    1.5405 H   0  0  0  0  0  0  0  0  0  0  0  0
    0.3906    0.7363   -0.4990 B   0  0  0  0  0  0  0  0  0  0  0  0
   -0.4472    0.6664   -1.6021 O   0  0  0  0  0  0  0  0  0  0  0  0
   -0.5659    1.9573   -2.2080 C   0  0  0  0  0  0  0  0  0  0  0  0
   -0.6116    1.8174   -3.7274 C   0  0  0  0  0  0  0  0  0  0  0  0
    0.2214    1.2224   -4.0873 H   0  0  0  0  0  0  0  0  0  0  0  0
   -0.5868    2.7996   -4.1925 H   0  0  0  0  0  0  0  0  0  0  0  0
   -1.5345    1.3172   -4.0116 H   0  0  0  0  0  0  0  0  0  0  0  0
   -1.8901    2.5613   -1.7169 C   0  0  0  0  0  0  0  0  0  0  0  0
   -2.0755    3.5290   -2.1737 H   0  0  0  0  0  0  0  0  0  0  0  0
   -2.7002    1.8835   -1.9798 H   0  0  0  0  0  0  0  0  0  0  0  0
   -1.8759    2.6623   -0.6333 H   0  0  0  0  0  0  0  0  0  0  0  0
    0.6833    2.7125   -1.6485 C   0  0  0  0  0  0  0  0  0  0  0  0
    0.9705    1.9840   -0.4481 O   0  0  0  0  0  0  0  0  0  0  0  0
    1.9115    2.5749   -2.5564 C   0  0  0  0  0  0  0  0  0  0  0  0
    2.1042    1.5215   -2.7443 H   0  0  0  0  0  0  0  0  0  0  0  0
    1.7742    3.1091   -3.4922 H   0  0  0  0  0  0  0  0  0  0  0  0
    2.7751    2.9835   -2.0365 H   0  0  0  0  0  0  0  0  0  0  0  0
    0.4544    4.1871   -1.3210 C   0  0  0  0  0  0  0  0  0  0  0  0
   -0.2745    4.3031   -0.5247 H   0  0  0  0  0  0  0  0  0  0  0  0
    1.3917    4.6283   -0.9902 H   0  0  0  0  0  0  0  0  0  0  0  0
    0.1123    4.7175   -2.2062 H   0  0  0  0  0  0  0  0  0  0  0  0
    1.5409    0.6251    1.9279 B   0  0  0  0  0  0  0  0  0  0  0  0
    2.9051    0.7738    1.9452 O   0  0  0  0  0  0  0  0  0  0  0  0
    3.2687    1.9934    2.6061 C   0  0  0  0  0  0  0  0  0  0  0  0
    4.4969    1.7557    3.4839 C   0  0  0  0  0  0  0  0  0  0  0  0
    4.3388    0.9197    4.1566 H   0  0  0  0  0  0  0  0  0  0  0  0
    5.3465    1.5204    2.8483 H   0  0  0  0  0  0  0  0  0  0  0  0
    4.7248    2.6496    4.0582 H   0  0  0  0  0  0  0  0  0  0  0  0
    3.6149    3.0035    1.5053 C   0  0  0  0  0  0  0  0  0  0  0  0
    3.8720    3.9737    1.9197 H   0  0  0  0  0  0  0  0  0  0  0  0
    4.4638    2.6246    0.9406 H   0  0  0  0  0  0  0  0  0  0  0  0
    2.7712    3.0873    0.8255 H   0  0  0  0  0  0  0  0  0  0  0  0
    1.9616    2.3653    3.3876 C   0  0  0  0  0  0  0  0  0  0  0  0
    0.9575    1.5964    2.7134 O   0  0  0  0  0  0  0  0  0  0  0  0
    1.5812    3.8441    3.3382 C   0  0  0  0  0  0  0  0  0  0  0  0
    1.3861    4.1543    2.3171 H   0  0  0  0  0  0  0  0  0  0  0  0
    0.6760    3.9976    3.9205 H   0  0  0  0  0  0  0  0  0  0  0  0
    2.3771    4.4513    3.7608 H   0  0  0  0  0  0  0  0  0  0  0  0
    1.9782    1.8954    4.8481 C   0  0  0  0  0  0  0  0  0  0  0  0
    2.1873    0.8297    4.8897 H   0  0  0  0  0  0  0  0  0  0  0  0
    2.7125    2.4447    5.4291 H   0  0  0  0  0  0  0  0  0  0  0  0
    0.9924    2.0598    5.2772 H   0  0  0  0  0  0  0  0  0  0  0  0
    2.2782   -1.3309    0.1741 B   0  0  0  0  0  0  0  0  0  0  0  0
    3.2471   -2.1043    0.7729 O   0  0  0  0  0  0  0  0  0  0  0  0
    4.4542   -2.0802    0.0005 C   0  0  0  0  0  0  0  0  0  0  0  0
    5.4103   -1.1140    0.7078 C   0  0  0  0  0  0  0  0  0  0  0  0
    4.9152   -0.1547    0.8265 H   0  0  0  0  0  0  0  0  0  0  0  0
    5.6223   -1.5044    1.6998 H   0  0  0  0  0  0  0  0  0  0  0  0
    6.3424   -1.0037    0.1622 H   0  0  0  0  0  0  0  0  0  0  0  0
    5.0723   -3.4783   -0.0207 C   0  0  0  0  0  0  0  0  0  0  0  0
    5.3624   -3.7478    0.9913 H   0  0  0  0  0  0  0  0  0  0  0  0
    5.9541   -3.4872   -0.6552 H   0  0  0  0  0  0  0  0  0  0  0  0
    4.3627   -4.2190   -0.3737 H   0  0  0  0  0  0  0  0  0  0  0  0
    3.9674   -1.5497   -1.3949 C   0  0  0  0  0  0  0  0  0  0  0  0
    2.6952   -0.9623   -1.0875 O   0  0  0  0  0  0  0  0  0  0  0  0
    4.8650   -0.4876   -2.0288 C   0  0  0  0  0  0  0  0  0  0  0  0
    5.8667   -0.8793   -2.1822 H   0  0  0  0  0  0  0  0  0  0  0  0
    4.4489   -0.2018   -2.9918 H   0  0  0  0  0  0  0  0  0  0  0  0
    4.9059    0.3970   -1.4027 H   0  0  0  0  0  0  0  0  0  0  0  0
    3.7193   -2.6668   -2.4182 C   0  0  0  0  0  0  0  0  0  0  0  0
    3.0570   -3.4204   -2.0012 H   0  0  0  0  0  0  0  0  0  0  0  0
    3.2326   -2.2360   -3.2899 H   0  0  0  0  0  0  0  0  0  0  0  0
    4.6525   -3.1286   -2.7259 H   0  0  0  0  0  0  0  0  0  0  0  0
   -3.1449   -3.2254   -3.3334 H   0  0  0  0  0  0  0  0  0  0  0  0
   -5.1776    1.4361    1.3476 H   0  0  0  0  0  0  0  0  0  0  0  0
    0.2359   -1.6814    2.9603 C   0  0  0  0  0  0  0  0  0  0  0  0
   -1.0169   -2.0506    3.4265 C   0  0  0  0  0  0  0  0  0  0  0  0
    1.3237   -1.6841    3.8543 C   0  0  0  0  0  0  0  0  0  0  0  0
   -1.1896   -2.3509    4.7778 C   0  0  0  0  0  0  0  0  0  0  0  0
   -1.8684   -2.1304    2.7658 H   0  0  0  0  0  0  0  0  0  0  0  0
    1.1902   -1.9992    5.1901 C   0  0  0  0  0  0  0  0  0  0  0  0
    2.3026   -1.4596    3.4593 H   0  0  0  0  0  0  0  0  0  0  0  0
   -0.0745   -2.3397    5.6476 C   0  0  0  0  0  0  0  0  0  0  0  0
   -2.3147   -2.7683    5.5700 C   0  0  0  0  0  0  0  0  0  0  0  0
    2.0396   -2.0216    5.8560 H   0  0  0  0  0  0  0  0  0  0  0  0
   -0.4831   -2.7389    6.8908 N   0  0  0  0  0  0  0  0  0  0  0  0
   -1.8230   -3.0026    6.8796 C   0  0  0  0  0  0  0  0  0  0  0  0
   -3.6629   -2.9735    5.3054 C   0  0  0  0  0  0  0  0  0  0  0  0
    0.3473   -2.9605    7.9628 O   0  0  0  0  0  0  0  0  0  0  0  0
   -2.6557   -3.4361    7.9005 C   0  0  0  0  0  0  0  0  0  0  0  0
   -4.5029   -3.4027    6.3195 C   0  0  0  0  0  0  0  0  0  0  0  0
   -4.0508   -2.8052    4.3112 H   0  0  0  0  0  0  0  0  0  0  0  0
    1.0463   -1.8075    8.9620 Si  0  0  0  0  0  0  0  0  0  0  0  0
   -3.9892   -3.6272    7.6018 C   0  0  0  0  0  0  0  0  0  0  0  0
   -2.2640   -3.6230    8.8886 H   0  0  0  0  0  0  0  0  0  0  0  0
   -5.9740   -3.5920    6.0657 C   0  0  0  0  0  0  0  0  0  0  0  0
    2.9067   -2.2073    8.9090 C   0  0  0  0  0  0  0  0  0  0  0  0
    0.6429   -0.0522    8.3503 C   0  0  0  0  0  0  0  0  0  0  0  0
    0.3386   -2.1382   10.6988 C   0  0  0  0  0  0  0  0  0  0  0  0
   -4.6596   -3.9671    8.3781 H   0  0  0  0  0  0  0  0  0  0  0  0
   -6.7586   -2.3300    6.4335 C   0  0  0  0  0  0  0  0  0  0  0  0
   -6.3454   -4.4300    6.6596 H   0  0  0  0  0  0  0  0  0  0  0  0
   -6.1388   -3.8230    5.0114 H   0  0  0  0  0  0  0  0  0  0  0  0
    3.0684   -3.2809    8.9418 H   0  0  0  0  0  0  0  0  0  0  0  0
    3.4250   -1.7691    9.7552 H   0  0  0  0  0  0  0  0  0  0  0  0
    3.3808   -1.8333    8.0065 H   0  0  0  0  0  0  0  0  0  0  0  0
    0.9551    0.0842    7.3182 H   0  0  0  0  0  0  0  0  0  0  0  0
    1.1372    0.7057    8.9485 H   0  0  0  0  0  0  0  0  0  0  0  0
   -0.4263    0.1394    8.3937 H   0  0  0  0  0  0  0  0  0  0  0  0
    0.4472   -3.1858   10.9647 H   0  0  0  0  0  0  0  0  0  0  0  0
   -0.7175   -1.8909   10.7605 H   0  0  0  0  0  0  0  0  0  0  0  0
    0.8572   -1.5532   11.4507 H   0  0  0  0  0  0  0  0  0  0  0  0
   -6.6128   -2.0873    7.4838 H   0  0  0  0  0  0  0  0  0  0  0  0
   -7.8215   -2.4764    6.2540 H   0  0  0  0  0  0  0  0  0  0  0  0
   -6.4161   -1.4869    5.8374 H   0  0  0  0  0  0  0  0  0  0  0  0
  1  2  4  0  0  0  0
  2  3  4  0  0  0  0
  3  4  4  0  0  0  0
  4  5  4  0  0  0  0
  1  6  4  0  0  0  0
  5  6  4  0  0  0  0
  6  7  1  0  0  0  0
  5  8  1  0  0  0  0
  3  9  1  0  0  0  0
  2 10  1  0  0  0  0
 10 11  4  0  0  0  0
 11 12  4  0  0  0  0
 12 13  4  0  0  0  0
 13 14  4  0  0  0  0
 10 15  4  0  0  0  0
 14 15  4  0  0  0  0
 15 16  1  0  0  0  0
 13 17  1  0  0  0  0
 12 18  1  0  0  0  0
  1 19  1  0  0  0  0
 11 19  1  0  0  0  0
 19 20  1  0  0  0  0
 19 21  1  0  0  0  0
 21 22  1  0  0  0  0
 22 23  1  0  0  0  0
 23 24  1  0  0  0  0
 24 25  1  0  0  0  0
 24 26  1  0  0  0  0
 24 27  1  0  0  0  0
 23 28  1  0  0  0  0
 28 29  1  0  0  0  0
 28 30  1  0  0  0  0
 28 31  1  0  0  0  0
 23 32  1  0  0  0  0
 21 33  1  0  0  0  0
 32 33  1  0  0  0  0
 32 34  1  0  0  0  0
 34 35  1  0  0  0  0
 34 36  1  0  0  0  0
 34 37  1  0  0  0  0
 32 38  1  0  0  0  0
 38 39  1  0  0  0  0
 38 40  1  0  0  0  0
 38 41  1  0  0  0  0
 19 42  1  0  0  0  0
 42 43  1  0  0  0  0
 43 44  1  0  0  0  0
 44 45  1  0  0  0  0
 45 46  1  0  0  0  0
 45 47  1  0  0  0  0
 45 48  1  0  0  0  0
 44 49  1  0  0  0  0
 49 50  1  0  0  0  0
 49 51  1  0  0  0  0
 49 52  1  0  0  0  0
 44 53  1  0  0  0  0
 42 54  1  0  0  0  0
 53 54  1  0  0  0  0
 53 55  1  0  0  0  0
 55 56  1  0  0  0  0
 55 57  1  0  0  0  0
 55 58  1  0  0  0  0
 53 59  1  0  0  0  0
 59 60  1  0  0  0  0
 59 61  1  0  0  0  0
 59 62  1  0  0  0  0
 19 63  1  0  0  0  0
 63 64  1  0  0  0  0
 64 65  1  0  0  0  0
 65 66  1  0  0  0  0
 66 67  1  0  0  0  0
 66 68  1  0  0  0  0
 66 69  1  0  0  0  0
 65 70  1  0  0  0  0
 70 71  1  0  0  0  0
 70 72  1  0  0  0  0
 70 73  1  0  0  0  0
 65 74  1  0  0  0  0
 63 75  1  0  0  0  0
 74 75  1  0  0  0  0
 74 76  1  0  0  0  0
 76 77  1  0  0  0  0
 76 78  1  0  0  0  0
 76 79  1  0  0  0  0
 74 80  1  0  0  0  0
 80 81  1  0  0  0  0
 80 82  1  0  0  0  0
 80 83  1  0  0  0  0
  4 84  1  0  0  0  0
 14 85  1  0  0  0  0
 19 86  1  0  0  0  0
 20 86  1  0  0  0  0
 86 87  4  0  0  0  0
 86 88  4  0  0  0  0
 87 89  4  0  0  0  0
 87 90  1  0  0  0  0
 88 91  4  0  0  0  0
 88 92  1  0  0  0  0
 89 93  4  0  0  0  0
 91 93  4  0  0  0  0
 89 94  1  0  0  0  0
 91 95  1  0  0  0  0
 93 96  1  0  0  0  0
 94 97  4  0  0  0  0
 96 97  1  0  0  0  0
 94 98  4  0  0  0  0
 96 99  1  0  0  0  0
 97100  4  0  0  0  0
 98101  4  0  0  0  0
 98102  1  0  0  0  0
 99103  1  0  0  0  0
100104  4  0  0  0  0
101104  4  0  0  0  0
100105  1  0  0  0  0
101106  1  0  0  0  0
103107  1  0  0  0  0
103108  1  0  0  0  0
103109  1  0  0  0  0
104110  1  0  0  0  0
106111  1  0  0  0  0
106112  1  0  0  0  0
106113  1  0  0  0  0
107114  1  0  0  0  0
107115  1  0  0  0  0
107116  1  0  0  0  0
108117  1  0  0  0  0
108118  1  0  0  0  0
108119  1  0  0  0  0
109120  1  0  0  0  0
109121  1  0  0  0  0
109122  1  0  0  0  0
111123  1  0  0  0  0
111124  1  0  0  0  0
111125  1  0  0  0  0
M  END
