
  xtb     01142213343D
 xtb: 6.4.1 (1a32961)
 98105  0     0  0            999 V2000
   -0.9815   -1.9383   -0.4710 N   0  0  0  0  0  0  0  0  0  0  0  0
   -2.1642   -1.3170   -0.6480 C   0  0  0  0  0  0  0  0  0  0  0  0
   -2.9494   -1.5665   -1.7775 C   0  0  0  0  0  0  0  0  0  0  0  0
   -2.5180   -2.4702   -2.7250 C   0  0  0  0  0  0  0  0  0  0  0  0
   -1.3026   -3.1180   -2.5233 C   0  0  0  0  0  0  0  0  0  0  0  0
   -0.5788   -2.8129   -1.3895 C   0  0  0  0  0  0  0  0  0  0  0  0
    0.3719   -3.2885   -1.1921 H   0  0  0  0  0  0  0  0  0  0  0  0
   -0.9293   -3.8357   -3.2357 H   0  0  0  0  0  0  0  0  0  0  0  0
   -3.8773   -1.0385   -1.9251 H   0  0  0  0  0  0  0  0  0  0  0  0
   -2.5520   -0.3616    0.3852 C   0  0  0  0  0  0  0  0  0  0  0  0
   -1.5908    0.0114    1.2528 N   0  0  0  0  0  0  0  0  0  0  0  0
   -1.9018    0.8725    2.2158 C   0  0  0  0  0  0  0  0  0  0  0  0
   -3.1601    1.4205    2.3709 C   0  0  0  0  0  0  0  0  0  0  0  0
   -4.1629    1.0444    1.4832 C   0  0  0  0  0  0  0  0  0  0  0  0
   -3.8526    0.1436    0.4859 C   0  0  0  0  0  0  0  0  0  0  0  0
   -4.6196   -0.1821   -0.1972 H   0  0  0  0  0  0  0  0  0  0  0  0
   -3.3555    2.1157    3.1713 H   0  0  0  0  0  0  0  0  0  0  0  0
   -1.0949    1.1348    2.8820 H   0  0  0  0  0  0  0  0  0  0  0  0
    0.4215   -0.8165    0.9133 Ir  0  0  0  0  0  0  0  0  0  0  0  0
    0.8726   -2.2303    1.5405 H   0  0  0  0  0  0  0  0  0  0  0  0
    0.4571    0.6011   -0.6282 B   0  0  0  0  0  0  0  0  0  0  0  0
   -0.2433    0.3570   -1.7973 O   0  0  0  0  0  0  0  0  0  0  0  0
   -0.2519    1.5238   -2.6241 C   0  0  0  0  0  0  0  0  0  0  0  0
   -0.0719    1.1148   -4.0842 C   0  0  0  0  0  0  0  0  0  0  0  0
    0.8055    0.4879   -4.2031 H   0  0  0  0  0  0  0  0  0  0  0  0
    0.0201    1.9969   -4.7125 H   0  0  0  0  0  0  0  0  0  0  0  0
   -0.9420    0.5448   -4.4019 H   0  0  0  0  0  0  0  0  0  0  0  0
   -1.6275    2.1840   -2.4517 C   0  0  0  0  0  0  0  0  0  0  0  0
   -1.7233    3.0644   -3.0803 H   0  0  0  0  0  0  0  0  0  0  0  0
   -2.3942    1.4639   -2.7300 H   0  0  0  0  0  0  0  0  0  0  0  0
   -1.7823    2.4562   -1.4098 H   0  0  0  0  0  0  0  0  0  0  0  0
    0.9132    2.3772   -2.0227 C   0  0  0  0  0  0  0  0  0  0  0  0
    1.0306    1.8506   -0.6944 O   0  0  0  0  0  0  0  0  0  0  0  0
    2.2527    2.1170   -2.7227 C   0  0  0  0  0  0  0  0  0  0  0  0
    2.4741    1.0535   -2.6799 H   0  0  0  0  0  0  0  0  0  0  0  0
    2.2382    2.4656   -3.7514 H   0  0  0  0  0  0  0  0  0  0  0  0
    3.0383    2.6411   -2.1831 H   0  0  0  0  0  0  0  0  0  0  0  0
    0.6498    3.8812   -1.9654 C   0  0  0  0  0  0  0  0  0  0  0  0
   -0.1888    4.1088   -1.3145 H   0  0  0  0  0  0  0  0  0  0  0  0
    1.5304    4.3832   -1.5708 H   0  0  0  0  0  0  0  0  0  0  0  0
    0.4493    4.2628   -2.9634 H   0  0  0  0  0  0  0  0  0  0  0  0
    1.5660    0.6886    1.7849 B   0  0  0  0  0  0  0  0  0  0  0  0
    2.9307    0.8036    1.8553 O   0  0  0  0  0  0  0  0  0  0  0  0
    3.2981    2.1027    2.3395 C   0  0  0  0  0  0  0  0  0  0  0  0
    4.4432    1.9669    3.3433 C   0  0  0  0  0  0  0  0  0  0  0  0
    4.1855    1.2797    4.1424 H   0  0  0  0  0  0  0  0  0  0  0  0
    5.3186    1.5740    2.8321 H   0  0  0  0  0  0  0  0  0  0  0  0
    4.6896    2.9375    3.7649 H   0  0  0  0  0  0  0  0  0  0  0  0
    3.7807    2.8995    1.1216 C   0  0  0  0  0  0  0  0  0  0  0  0
    4.0454    3.9181    1.3888 H   0  0  0  0  0  0  0  0  0  0  0  0
    4.6573    2.4052    0.7082 H   0  0  0  0  0  0  0  0  0  0  0  0
    3.0009    2.8913    0.3651 H   0  0  0  0  0  0  0  0  0  0  0  0
    1.9534    2.6483    2.9411 C   0  0  0  0  0  0  0  0  0  0  0  0
    0.9685    1.7700    2.3829 O   0  0  0  0  0  0  0  0  0  0  0  0
    1.6117    4.0841    2.5434 C   0  0  0  0  0  0  0  0  0  0  0  0
    1.4877    4.1586    1.4682 H   0  0  0  0  0  0  0  0  0  0  0  0
    0.6738    4.3678    3.0145 H   0  0  0  0  0  0  0  0  0  0  0  0
    2.3905    4.7652    2.8750 H   0  0  0  0  0  0  0  0  0  0  0  0
    1.8679    2.5163    4.4668 C   0  0  0  0  0  0  0  0  0  0  0  0
    2.0435    1.4881    4.7698 H   0  0  0  0  0  0  0  0  0  0  0  0
    2.5832    3.1694    4.9573 H   0  0  0  0  0  0  0  0  0  0  0  0
    0.8648    2.7904    4.7860 H   0  0  0  0  0  0  0  0  0  0  0  0
    2.2782   -1.3309    0.1741 B   0  0  0  0  0  0  0  0  0  0  0  0
    3.1438   -2.2077    0.7958 O   0  0  0  0  0  0  0  0  0  0  0  0
    4.4122   -2.2185    0.1324 C   0  0  0  0  0  0  0  0  0  0  0  0
    5.3608   -1.3643    0.9803 C   0  0  0  0  0  0  0  0  0  0  0  0
    4.9235   -0.3793    1.1135 H   0  0  0  0  0  0  0  0  0  0  0  0
    5.4518   -1.8225    1.9621 H   0  0  0  0  0  0  0  0  0  0  0  0
    6.3461   -1.2920    0.5300 H   0  0  0  0  0  0  0  0  0  0  0  0
    4.9419   -3.6518    0.0724 C   0  0  0  0  0  0  0  0  0  0  0  0
    5.1173   -4.0011    1.0866 H   0  0  0  0  0  0  0  0  0  0  0  0
    5.8780   -3.6826   -0.4781 H   0  0  0  0  0  0  0  0  0  0  0  0
    4.2247   -4.3199   -0.3925 H   0  0  0  0  0  0  0  0  0  0  0  0
    4.0801   -1.5729   -1.2592 C   0  0  0  0  0  0  0  0  0  0  0  0
    2.8270   -0.9143   -1.0189 O   0  0  0  0  0  0  0  0  0  0  0  0
    5.1022   -0.5483   -1.7484 C   0  0  0  0  0  0  0  0  0  0  0  0
    6.0852   -1.0043   -1.8285 H   0  0  0  0  0  0  0  0  0  0  0  0
    4.8036   -0.1850   -2.7285 H   0  0  0  0  0  0  0  0  0  0  0  0
    5.1429    0.2980   -1.0714 H   0  0  0  0  0  0  0  0  0  0  0  0
    3.8413   -2.6101   -2.3651 C   0  0  0  0  0  0  0  0  0  0  0  0
    3.0869   -3.3259   -2.0507 H   0  0  0  0  0  0  0  0  0  0  0  0
    3.4705   -2.0973   -3.2494 H   0  0  0  0  0  0  0  0  0  0  0  0
    4.7603   -3.1303   -2.6169 H   0  0  0  0  0  0  0  0  0  0  0  0
   -3.1086   -2.6656   -3.6073 H   0  0  0  0  0  0  0  0  0  0  0  0
   -5.1626    1.4411    1.5756 H   0  0  0  0  0  0  0  0  0  0  0  0
    0.2359   -1.6814    2.9603 C   0  0  0  0  0  0  0  0  0  0  0  0
   -0.9893   -2.2313    3.3820 C   0  0  0  0  0  0  0  0  0  0  0  0
    1.1734   -1.3432    3.9264 C   0  0  0  0  0  0  0  0  0  0  0  0
   -1.9254   -2.6735    2.4708 N   0  0  0  0  0  0  0  0  0  0  0  0
   -1.2869   -2.2864    4.7466 C   0  0  0  0  0  0  0  0  0  0  0  0
    0.8584   -1.4176    5.2737 C   0  0  0  0  0  0  0  0  0  0  0  0
    2.1571   -1.0245    3.6213 H   0  0  0  0  0  0  0  0  0  0  0  0
   -1.5608   -2.8776    1.5528 H   0  0  0  0  0  0  0  0  0  0  0  0
   -2.6111   -3.3227    2.8188 H   0  0  0  0  0  0  0  0  0  0  0  0
   -0.3782   -1.8669    5.6988 C   0  0  0  0  0  0  0  0  0  0  0  0
   -2.2446   -2.6756    5.0619 H   0  0  0  0  0  0  0  0  0  0  0  0
    2.0527   -0.9553    6.4588 Cl  0  0  0  0  0  0  0  0  0  0  0  0
   -0.6175   -1.9144    6.7496 H   0  0  0  0  0  0  0  0  0  0  0  0
  1  2  4  0  0  0  0
  2  3  4  0  0  0  0
  3  4  4  0  0  0  0
  4  5  4  0  0  0  0
  1  6  4  0  0  0  0
  5  6  4  0  0  0  0
  6  7  1  0  0  0  0
  5  8  1  0  0  0  0
  3  9  1  0  0  0  0
  2 10  1  0  0  0  0
 10 11  4  0  0  0  0
 11 12  4  0  0  0  0
 12 13  4  0  0  0  0
 13 14  4  0  0  0  0
 10 15  4  0  0  0  0
 14 15  4  0  0  0  0
 15 16  1  0  0  0  0
 13 17  1  0  0  0  0
 12 18  1  0  0  0  0
  1 19  1  0  0  0  0
 11 19  1  0  0  0  0
 19 20  1  0  0  0  0
 19 21  1  0  0  0  0
 21 22  1  0  0  0  0
 22 23  1  0  0  0  0
 23 24  1  0  0  0  0
 24 25  1  0  0  0  0
 24 26  1  0  0  0  0
 24 27  1  0  0  0  0
 23 28  1  0  0  0  0
 28 29  1  0  0  0  0
 28 30  1  0  0  0  0
 28 31  1  0  0  0  0
 23 32  1  0  0  0  0
 21 33  1  0  0  0  0
 32 33  1  0  0  0  0
 32 34  1  0  0  0  0
 34 35  1  0  0  0  0
 34 36  1  0  0  0  0
 34 37  1  0  0  0  0
 32 38  1  0  0  0  0
 38 39  1  0  0  0  0
 38 40  1  0  0  0  0
 38 41  1  0  0  0  0
 19 42  1  0  0  0  0
 42 43  1  0  0  0  0
 43 44  1  0  0  0  0
 44 45  1  0  0  0  0
 45 46  1  0  0  0  0
 45 47  1  0  0  0  0
 45 48  1  0  0  0  0
 44 49  1  0  0  0  0
 49 50  1  0  0  0  0
 49 51  1  0  0  0  0
 49 52  1  0  0  0  0
 44 53  1  0  0  0  0
 42 54  1  0  0  0  0
 53 54  1  0  0  0  0
 53 55  1  0  0  0  0
 55 56  1  0  0  0  0
 55 57  1  0  0  0  0
 55 58  1  0  0  0  0
 53 59  1  0  0  0  0
 59 60  1  0  0  0  0
 59 61  1  0  0  0  0
 59 62  1  0  0  0  0
 19 63  1  0  0  0  0
 63 64  1  0  0  0  0
 64 65  1  0  0  0  0
 65 66  1  0  0  0  0
 66 67  1  0  0  0  0
 66 68  1  0  0  0  0
 66 69  1  0  0  0  0
 65 70  1  0  0  0  0
 70 71  1  0  0  0  0
 70 72  1  0  0  0  0
 70 73  1  0  0  0  0
 65 74  1  0  0  0  0
 63 75  1  0  0  0  0
 74 75  1  0  0  0  0
 74 76  1  0  0  0  0
 76 77  1  0  0  0  0
 76 78  1  0  0  0  0
 76 79  1  0  0  0  0
 74 80  1  0  0  0  0
 80 81  1  0  0  0  0
 80 82  1  0  0  0  0
 80 83  1  0  0  0  0
  4 84  1  0  0  0  0
 14 85  1  0  0  0  0
 19 86  1  0  0  0  0
 20 86  1  0  0  0  0
 86 87  4  0  0  0  0
 86 88  4  0  0  0  0
 87 89  1  0  0  0  0
 87 90  4  0  0  0  0
 88 91  4  0  0  0  0
 88 92  1  0  0  0  0
 89 93  1  0  0  0  0
 89 94  1  0  0  0  0
 90 95  4  0  0  0  0
 91 95  4  0  0  0  0
 90 96  1  0  0  0  0
 91 97  1  0  0  0  0
 95 98  1  0  0  0  0
M  END
