
  xtb     01142213223D
 xtb: 6.4.1 (1a32961)
 99107  0     0  0            999 V2000
   -0.9071   -2.0246   -0.3711 N   0  0  0  0  0  0  0  0  0  0  0  0
   -2.1554   -1.5496   -0.5502 C   0  0  0  0  0  0  0  0  0  0  0  0
   -3.0307   -2.1524   -1.4635 C   0  0  0  0  0  0  0  0  0  0  0  0
   -2.6137   -3.2387   -2.1999 C   0  0  0  0  0  0  0  0  0  0  0  0
   -1.3170   -3.7129   -2.0109 C   0  0  0  0  0  0  0  0  0  0  0  0
   -0.5148   -3.0737   -1.0900 C   0  0  0  0  0  0  0  0  0  0  0  0
    0.4952   -3.4117   -0.9052 H   0  0  0  0  0  0  0  0  0  0  0  0
   -0.9476   -4.5605   -2.5651 H   0  0  0  0  0  0  0  0  0  0  0  0
   -4.0313   -1.7747   -1.5956 H   0  0  0  0  0  0  0  0  0  0  0  0
   -2.5213   -0.3893    0.2493 C   0  0  0  0  0  0  0  0  0  0  0  0
   -1.5856    0.0660    1.1121 N   0  0  0  0  0  0  0  0  0  0  0  0
   -1.8774    1.1233    1.8684 C   0  0  0  0  0  0  0  0  0  0  0  0
   -3.0828    1.7916    1.8127 C   0  0  0  0  0  0  0  0  0  0  0  0
   -4.0515    1.3446    0.9164 C   0  0  0  0  0  0  0  0  0  0  0  0
   -3.7634    0.2480    0.1338 C   0  0  0  0  0  0  0  0  0  0  0  0
   -4.4986   -0.1102   -0.5677 H   0  0  0  0  0  0  0  0  0  0  0  0
   -3.2650    2.6403    2.4520 H   0  0  0  0  0  0  0  0  0  0  0  0
   -1.0918    1.4396    2.5373 H   0  0  0  0  0  0  0  0  0  0  0  0
    0.4215   -0.8165    0.9133 Ir  0  0  0  0  0  0  0  0  0  0  0  0
    0.8726   -2.2303    1.5405 H   0  0  0  0  0  0  0  0  0  0  0  0
    0.4271    0.6031   -0.6120 B   0  0  0  0  0  0  0  0  0  0  0  0
   -0.1673    0.2977   -1.8227 O   0  0  0  0  0  0  0  0  0  0  0  0
   -0.2528    1.4703   -2.6385 C   0  0  0  0  0  0  0  0  0  0  0  0
    0.0701    1.1121   -4.0870 C   0  0  0  0  0  0  0  0  0  0  0  0
    1.0093    0.5724   -4.1475 H   0  0  0  0  0  0  0  0  0  0  0  0
    0.1250    2.0129   -4.6929 H   0  0  0  0  0  0  0  0  0  0  0  0
   -0.7159    0.4715   -4.4800 H   0  0  0  0  0  0  0  0  0  0  0  0
   -1.7015    1.9722   -2.5535 C   0  0  0  0  0  0  0  0  0  0  0  0
   -1.8546    2.8389   -3.1897 H   0  0  0  0  0  0  0  0  0  0  0  0
   -2.3653    1.1726   -2.8767 H   0  0  0  0  0  0  0  0  0  0  0  0
   -1.9519    2.2229   -1.5244 H   0  0  0  0  0  0  0  0  0  0  0  0
    0.7664    2.4381   -1.9520 C   0  0  0  0  0  0  0  0  0  0  0  0
    0.8424    1.9158   -0.6186 O   0  0  0  0  0  0  0  0  0  0  0  0
    2.1744    2.3249   -2.5491 C   0  0  0  0  0  0  0  0  0  0  0  0
    2.4997    1.2888   -2.4958 H   0  0  0  0  0  0  0  0  0  0  0  0
    2.2024    2.6840   -3.5739 H   0  0  0  0  0  0  0  0  0  0  0  0
    2.8575    2.9190   -1.9464 H   0  0  0  0  0  0  0  0  0  0  0  0
    0.3420    3.9050   -1.9169 C   0  0  0  0  0  0  0  0  0  0  0  0
   -0.5678    4.0398   -1.3402 H   0  0  0  0  0  0  0  0  0  0  0  0
    1.1290    4.4921   -1.4496 H   0  0  0  0  0  0  0  0  0  0  0  0
    0.1871    4.2705   -2.9289 H   0  0  0  0  0  0  0  0  0  0  0  0
    1.5743    0.6272    1.8936 B   0  0  0  0  0  0  0  0  0  0  0  0
    2.9390    0.7856    1.8631 O   0  0  0  0  0  0  0  0  0  0  0  0
    3.3092    2.0381    2.4543 C   0  0  0  0  0  0  0  0  0  0  0  0
    4.5693    1.8574    3.2995 C   0  0  0  0  0  0  0  0  0  0  0  0
    4.4420    1.0562    4.0202 H   0  0  0  0  0  0  0  0  0  0  0  0
    5.4012    1.5998    2.6488 H   0  0  0  0  0  0  0  0  0  0  0  0
    4.8062    2.7815    3.8197 H   0  0  0  0  0  0  0  0  0  0  0  0
    3.6021    2.9955    1.2924 C   0  0  0  0  0  0  0  0  0  0  0  0
    3.8718    3.9856    1.6473 H   0  0  0  0  0  0  0  0  0  0  0  0
    4.4272    2.5913    0.7101 H   0  0  0  0  0  0  0  0  0  0  0  0
    2.7294    3.0439    0.6461 H   0  0  0  0  0  0  0  0  0  0  0  0
    2.0263    2.4342    3.2633 C   0  0  0  0  0  0  0  0  0  0  0  0
    1.0102    1.6163    2.6697 O   0  0  0  0  0  0  0  0  0  0  0  0
    1.6200    3.9028    3.1433 C   0  0  0  0  0  0  0  0  0  0  0  0
    1.3776    4.1501    2.1151 H   0  0  0  0  0  0  0  0  0  0  0  0
    0.7375    4.0779    3.7536 H   0  0  0  0  0  0  0  0  0  0  0  0
    2.4222    4.5447    3.4971 H   0  0  0  0  0  0  0  0  0  0  0  0
    2.1041    2.0544    4.7475 C   0  0  0  0  0  0  0  0  0  0  0  0
    2.3347    0.9974    4.8531 H   0  0  0  0  0  0  0  0  0  0  0  0
    2.8514    2.6473    5.2655 H   0  0  0  0  0  0  0  0  0  0  0  0
    1.1339    2.2329    5.2053 H   0  0  0  0  0  0  0  0  0  0  0  0
    2.2782   -1.3309    0.1741 B   0  0  0  0  0  0  0  0  0  0  0  0
    3.1191   -2.2799    0.7187 O   0  0  0  0  0  0  0  0  0  0  0  0
    4.3950   -2.2546    0.0677 C   0  0  0  0  0  0  0  0  0  0  0  0
    5.3510   -1.5077    1.0046 C   0  0  0  0  0  0  0  0  0  0  0  0
    4.9320   -0.5312    1.2311 H   0  0  0  0  0  0  0  0  0  0  0  0
    5.4281   -2.0654    1.9349 H   0  0  0  0  0  0  0  0  0  0  0  0
    6.3409   -1.4094    0.5700 H   0  0  0  0  0  0  0  0  0  0  0  0
    4.8945   -3.6863   -0.1268 C   0  0  0  0  0  0  0  0  0  0  0  0
    5.0494   -4.1375    0.8498 H   0  0  0  0  0  0  0  0  0  0  0  0
    5.8367   -3.6837   -0.6677 H   0  0  0  0  0  0  0  0  0  0  0  0
    4.1696   -4.2890   -0.6636 H   0  0  0  0  0  0  0  0  0  0  0  0
    4.0934   -1.4688   -1.2572 C   0  0  0  0  0  0  0  0  0  0  0  0
    2.8482   -0.8154   -0.9676 O   0  0  0  0  0  0  0  0  0  0  0  0
    5.1372   -0.4163   -1.6277 C   0  0  0  0  0  0  0  0  0  0  0  0
    6.1136   -0.8778   -1.7469 H   0  0  0  0  0  0  0  0  0  0  0  0
    4.8540    0.0522   -2.5670 H   0  0  0  0  0  0  0  0  0  0  0  0
    5.1838    0.3541   -0.8658 H   0  0  0  0  0  0  0  0  0  0  0  0
    3.8543   -2.3848   -2.4652 C   0  0  0  0  0  0  0  0  0  0  0  0
    3.0814   -3.1137   -2.2375 H   0  0  0  0  0  0  0  0  0  0  0  0
    3.5065   -1.7779   -3.2977 H   0  0  0  0  0  0  0  0  0  0  0  0
    4.7678   -2.8943   -2.7563 H   0  0  0  0  0  0  0  0  0  0  0  0
   -3.2778   -3.7109   -2.9077 H   0  0  0  0  0  0  0  0  0  0  0  0
   -5.0049    1.8443    0.8348 H   0  0  0  0  0  0  0  0  0  0  0  0
    0.2359   -1.6814    2.9603 C   0  0  0  0  0  0  0  0  0  0  0  0
   -0.9931   -1.9037    3.5220 C   0  0  0  0  0  0  0  0  0  0  0  0
    1.1606   -1.7056    4.0485 C   0  0  0  0  0  0  0  0  0  0  0  0
   -0.8999   -2.0149    4.8895 N   0  0  0  0  0  0  0  0  0  0  0  0
   -1.9538   -1.9936    3.0507 H   0  0  0  0  0  0  0  0  0  0  0  0
    2.5482   -1.6091    4.1558 C   0  0  0  0  0  0  0  0  0  0  0  0
    0.4109   -1.8961    5.2421 C   0  0  0  0  0  0  0  0  0  0  0  0
   -1.6703   -2.1482    5.5221 H   0  0  0  0  0  0  0  0  0  0  0  0
    3.0859   -1.6851    5.4239 C   0  0  0  0  0  0  0  0  0  0  0  0
    3.1504   -1.4774    3.2721 H   0  0  0  0  0  0  0  0  0  0  0  0
    1.0642   -1.9475    6.4673 C   0  0  0  0  0  0  0  0  0  0  0  0
    2.3747   -1.8406    6.5469 N   0  0  0  0  0  0  0  0  0  0  0  0
    4.1550   -1.6174    5.5840 H   0  0  0  0  0  0  0  0  0  0  0  0
    0.5374   -2.0795    7.4046 H   0  0  0  0  0  0  0  0  0  0  0  0
  1  2  4  0  0  0  0
  2  3  4  0  0  0  0
  3  4  4  0  0  0  0
  4  5  4  0  0  0  0
  1  6  4  0  0  0  0
  5  6  4  0  0  0  0
  6  7  1  0  0  0  0
  5  8  1  0  0  0  0
  3  9  1  0  0  0  0
  2 10  1  0  0  0  0
 10 11  4  0  0  0  0
 11 12  4  0  0  0  0
 12 13  4  0  0  0  0
 13 14  4  0  0  0  0
 10 15  4  0  0  0  0
 14 15  4  0  0  0  0
 15 16  1  0  0  0  0
 13 17  1  0  0  0  0
 12 18  1  0  0  0  0
  1 19  1  0  0  0  0
 11 19  1  0  0  0  0
 19 20  1  0  0  0  0
 19 21  1  0  0  0  0
 21 22  1  0  0  0  0
 22 23  1  0  0  0  0
 23 24  1  0  0  0  0
 24 25  1  0  0  0  0
 24 26  1  0  0  0  0
 24 27  1  0  0  0  0
 23 28  1  0  0  0  0
 28 29  1  0  0  0  0
 28 30  1  0  0  0  0
 28 31  1  0  0  0  0
 23 32  1  0  0  0  0
 21 33  1  0  0  0  0
 32 33  1  0  0  0  0
 32 34  1  0  0  0  0
 34 35  1  0  0  0  0
 34 36  1  0  0  0  0
 34 37  1  0  0  0  0
 32 38  1  0  0  0  0
 38 39  1  0  0  0  0
 38 40  1  0  0  0  0
 38 41  1  0  0  0  0
 19 42  1  0  0  0  0
 42 43  1  0  0  0  0
 43 44  1  0  0  0  0
 44 45  1  0  0  0  0
 45 46  1  0  0  0  0
 45 47  1  0  0  0  0
 45 48  1  0  0  0  0
 44 49  1  0  0  0  0
 49 50  1  0  0  0  0
 49 51  1  0  0  0  0
 49 52  1  0  0  0  0
 44 53  1  0  0  0  0
 42 54  1  0  0  0  0
 53 54  1  0  0  0  0
 53 55  1  0  0  0  0
 55 56  1  0  0  0  0
 55 57  1  0  0  0  0
 55 58  1  0  0  0  0
 53 59  1  0  0  0  0
 59 60  1  0  0  0  0
 59 61  1  0  0  0  0
 59 62  1  0  0  0  0
 19 63  1  0  0  0  0
 63 64  1  0  0  0  0
 64 65  1  0  0  0  0
 65 66  1  0  0  0  0
 66 67  1  0  0  0  0
 66 68  1  0  0  0  0
 66 69  1  0  0  0  0
 65 70  1  0  0  0  0
 70 71  1  0  0  0  0
 70 72  1  0  0  0  0
 70 73  1  0  0  0  0
 65 74  1  0  0  0  0
 63 75  1  0  0  0  0
 74 75  1  0  0  0  0
 74 76  1  0  0  0  0
 76 77  1  0  0  0  0
 76 78  1  0  0  0  0
 76 79  1  0  0  0  0
 74 80  1  0  0  0  0
 80 81  1  0  0  0  0
 80 82  1  0  0  0  0
 80 83  1  0  0  0  0
  4 84  1  0  0  0  0
 14 85  1  0  0  0  0
 19 86  1  0  0  0  0
 20 86  1  0  0  0  0
 86 87  2  0  0  0  0
 86 88  4  0  0  0  0
 87 89  1  0  0  0  0
 87 90  1  0  0  0  0
 88 91  4  0  0  0  0
 88 92  4  0  0  0  0
 89 92  1  0  0  0  0
 89 93  1  0  0  0  0
 91 94  4  0  0  0  0
 91 95  1  0  0  0  0
 92 96  4  0  0  0  0
 94 97  4  0  0  0  0
 96 97  4  0  0  0  0
 94 98  1  0  0  0  0
 96 99  1  0  0  0  0
M  END
