   16
Created with kallisto
C     -2.0785    0.6934   -0.0013
C     -0.8756    1.4121    0.0001
C     -2.0924   -0.7076   -0.0016
C      0.2838    0.6454    0.0009
H     -0.8465    2.4943    0.0003
C     -0.8976   -1.4440   -0.0008
H     -3.0434   -1.2365   -0.0025
C      0.3128   -0.7399    0.0004
O      1.5754    1.0882    0.0019
H     -0.9020   -2.5281   -0.0012
N      1.6113   -1.1808    0.0011
C      2.3156   -0.0650    0.0015
C      3.7829    0.0942    0.0023
H      4.2736   -0.8839    0.0019
H      4.1103    0.6405    0.8915
H      4.1108    0.6414   -0.8862
