
  xtb     01142215253D
 xtb: 6.4.1 (1a32961)
 96103  0     0  0            999 V2000
   -0.9406   -2.0236   -0.3680 N   0  0  0  0  0  0  0  0  0  0  0  0
   -2.1804   -1.5310   -0.5375 C   0  0  0  0  0  0  0  0  0  0  0  0
   -3.0433   -2.0706   -1.4988 C   0  0  0  0  0  0  0  0  0  0  0  0
   -2.6221   -3.1214   -2.2851 C   0  0  0  0  0  0  0  0  0  0  0  0
   -1.3378   -3.6228   -2.0957 C   0  0  0  0  0  0  0  0  0  0  0  0
   -0.5443   -3.0386   -1.1297 C   0  0  0  0  0  0  0  0  0  0  0  0
    0.4589   -3.3949   -0.9440 H   0  0  0  0  0  0  0  0  0  0  0  0
   -0.9677   -4.4451   -2.6858 H   0  0  0  0  0  0  0  0  0  0  0  0
   -4.0332   -1.6689   -1.6374 H   0  0  0  0  0  0  0  0  0  0  0  0
   -2.5561   -0.4117    0.3222 C   0  0  0  0  0  0  0  0  0  0  0  0
   -1.6035    0.0576    1.1535 N   0  0  0  0  0  0  0  0  0  0  0  0
   -1.9003    1.0756    1.9568 C   0  0  0  0  0  0  0  0  0  0  0  0
   -3.1389    1.6848    1.9891 C   0  0  0  0  0  0  0  0  0  0  0  0
   -4.1319    1.2145    1.1356 C   0  0  0  0  0  0  0  0  0  0  0  0
   -3.8330    0.1615    0.2970 C   0  0  0  0  0  0  0  0  0  0  0  0
   -4.5912   -0.2165   -0.3681 H   0  0  0  0  0  0  0  0  0  0  0  0
   -3.3262    2.5013    2.6673 H   0  0  0  0  0  0  0  0  0  0  0  0
   -1.0938    1.4125    2.5897 H   0  0  0  0  0  0  0  0  0  0  0  0
    0.4215   -0.8165    0.9133 Ir  0  0  0  0  0  0  0  0  0  0  0  0
    0.8726   -2.2303    1.5405 H   0  0  0  0  0  0  0  0  0  0  0  0
    0.4135    0.5845   -0.6299 B   0  0  0  0  0  0  0  0  0  0  0  0
   -0.2178    0.2897   -1.8237 O   0  0  0  0  0  0  0  0  0  0  0  0
   -0.2944    1.4651   -2.6390 C   0  0  0  0  0  0  0  0  0  0  0  0
   -0.0276    1.0986   -4.0966 C   0  0  0  0  0  0  0  0  0  0  0  0
    0.8916    0.5295   -4.1862 H   0  0  0  0  0  0  0  0  0  0  0  0
    0.0380    1.9986   -4.7023 H   0  0  0  0  0  0  0  0  0  0  0  0
   -0.8455    0.4851   -4.4668 H   0  0  0  0  0  0  0  0  0  0  0  0
   -1.7239    2.0091   -2.5058 C   0  0  0  0  0  0  0  0  0  0  0  0
   -1.8717    2.8820   -3.1344 H   0  0  0  0  0  0  0  0  0  0  0  0
   -2.4213    1.2307   -2.8091 H   0  0  0  0  0  0  0  0  0  0  0  0
   -1.9322    2.2633   -1.4683 H   0  0  0  0  0  0  0  0  0  0  0  0
    0.7740    2.4023   -1.9860 C   0  0  0  0  0  0  0  0  0  0  0  0
    0.8695    1.8806   -0.6524 O   0  0  0  0  0  0  0  0  0  0  0  0
    2.1608    2.2417   -2.6201 C   0  0  0  0  0  0  0  0  0  0  0  0
    2.4539    1.1957   -2.5725 H   0  0  0  0  0  0  0  0  0  0  0  0
    2.1727    2.5980   -3.6460 H   0  0  0  0  0  0  0  0  0  0  0  0
    2.8786    2.8142   -2.0375 H   0  0  0  0  0  0  0  0  0  0  0  0
    0.3978    3.8818   -1.9436 C   0  0  0  0  0  0  0  0  0  0  0  0
   -0.4884    4.0470   -1.3388 H   0  0  0  0  0  0  0  0  0  0  0  0
    1.2176    4.4448   -1.5041 H   0  0  0  0  0  0  0  0  0  0  0  0
    0.2223    4.2493   -2.9514 H   0  0  0  0  0  0  0  0  0  0  0  0
    1.5793    0.6440    1.8565 B   0  0  0  0  0  0  0  0  0  0  0  0
    2.9448    0.7762    1.8697 O   0  0  0  0  0  0  0  0  0  0  0  0
    3.3104    2.0575    2.4066 C   0  0  0  0  0  0  0  0  0  0  0  0
    4.5562    1.9194    3.2796 C   0  0  0  0  0  0  0  0  0  0  0  0
    4.4258    1.1542    4.0375 H   0  0  0  0  0  0  0  0  0  0  0  0
    5.3996    1.6358    2.6554 H   0  0  0  0  0  0  0  0  0  0  0  0
    4.7808    2.8680    3.7595 H   0  0  0  0  0  0  0  0  0  0  0  0
    3.6222    2.9567    1.2049 C   0  0  0  0  0  0  0  0  0  0  0  0
    3.8926    3.9608    1.5174 H   0  0  0  0  0  0  0  0  0  0  0  0
    4.4527    2.5221    0.6532 H   0  0  0  0  0  0  0  0  0  0  0  0
    2.7577    2.9782    0.5466 H   0  0  0  0  0  0  0  0  0  0  0  0
    2.0134    2.4937    3.1707 C   0  0  0  0  0  0  0  0  0  0  0  0
    1.0031    1.6617    2.5805 O   0  0  0  0  0  0  0  0  0  0  0  0
    1.6225    3.9592    2.9899 C   0  0  0  0  0  0  0  0  0  0  0  0
    1.3955    4.1679    1.9498 H   0  0  0  0  0  0  0  0  0  0  0  0
    0.7341    4.1661    3.5816 H   0  0  0  0  0  0  0  0  0  0  0  0
    2.4265    4.6065    3.3288 H   0  0  0  0  0  0  0  0  0  0  0  0
    2.0550    2.1640    4.6672 C   0  0  0  0  0  0  0  0  0  0  0  0
    2.3035    1.1170    4.8133 H   0  0  0  0  0  0  0  0  0  0  0  0
    2.7774    2.7861    5.1862 H   0  0  0  0  0  0  0  0  0  0  0  0
    1.0695    2.3380    5.0934 H   0  0  0  0  0  0  0  0  0  0  0  0
    2.2782   -1.3309    0.1741 B   0  0  0  0  0  0  0  0  0  0  0  0
    3.0939   -2.2908    0.7332 O   0  0  0  0  0  0  0  0  0  0  0  0
    4.3866   -2.2737    0.1121 C   0  0  0  0  0  0  0  0  0  0  0  0
    5.3271   -1.5567    1.0865 C   0  0  0  0  0  0  0  0  0  0  0  0
    4.9130   -0.5808    1.3225 H   0  0  0  0  0  0  0  0  0  0  0  0
    5.3736   -2.1332    2.0071 H   0  0  0  0  0  0  0  0  0  0  0  0
    6.3285   -1.4619    0.6788 H   0  0  0  0  0  0  0  0  0  0  0  0
    4.8690   -3.7098   -0.0927 C   0  0  0  0  0  0  0  0  0  0  0  0
    4.9882   -4.1799    0.8800 H   0  0  0  0  0  0  0  0  0  0  0  0
    5.8268   -3.7133   -0.6049 H   0  0  0  0  0  0  0  0  0  0  0  0
    4.1516   -4.2922   -0.6611 H   0  0  0  0  0  0  0  0  0  0  0  0
    4.1278   -1.4636   -1.2084 C   0  0  0  0  0  0  0  0  0  0  0  0
    2.8734   -0.8123   -0.9484 O   0  0  0  0  0  0  0  0  0  0  0  0
    5.1815   -0.4033   -1.5238 C   0  0  0  0  0  0  0  0  0  0  0  0
    6.1605   -0.8623   -1.6283 H   0  0  0  0  0  0  0  0  0  0  0  0
    4.9226    0.0891   -2.4577 H   0  0  0  0  0  0  0  0  0  0  0  0
    5.2070    0.3469   -0.7413 H   0  0  0  0  0  0  0  0  0  0  0  0
    3.9276   -2.3547   -2.4413 C   0  0  0  0  0  0  0  0  0  0  0  0
    3.1452   -3.0853   -2.2556 H   0  0  0  0  0  0  0  0  0  0  0  0
    3.6116   -1.7302   -3.2733 H   0  0  0  0  0  0  0  0  0  0  0  0
    4.8492   -2.8616   -2.7103 H   0  0  0  0  0  0  0  0  0  0  0  0
   -3.2764   -3.5436   -3.0325 H   0  0  0  0  0  0  0  0  0  0  0  0
   -5.1148    1.6604    1.1286 H   0  0  0  0  0  0  0  0  0  0  0  0
    0.2359   -1.6814    2.9603 C   0  0  0  0  0  0  0  0  0  0  0  0
   -1.0501   -2.0547    3.3494 C   0  0  0  0  0  0  0  0  0  0  0  0
    1.2140   -1.5507    3.9481 C   0  0  0  0  0  0  0  0  0  0  0  0
   -1.3438   -2.1931    4.6914 C   0  0  0  0  0  0  0  0  0  0  0  0
   -1.8332   -2.2387    2.6300 H   0  0  0  0  0  0  0  0  0  0  0  0
    0.8844   -1.7127    5.2768 C   0  0  0  0  0  0  0  0  0  0  0  0
    2.2270   -1.3269    3.6530 H   0  0  0  0  0  0  0  0  0  0  0  0
   -2.6167   -2.5209    5.0560 F   0  0  0  0  0  0  0  0  0  0  0  0
   -0.4006   -2.0251    5.6873 C   0  0  0  0  0  0  0  0  0  0  0  0
    2.3909   -1.5041    6.7573 I   0  0  0  0  0  0  0  0  0  0  0  0
   -0.6689   -2.1505    6.7233 H   0  0  0  0  0  0  0  0  0  0  0  0
  1  2  4  0  0  0  0
  2  3  4  0  0  0  0
  3  4  4  0  0  0  0
  4  5  4  0  0  0  0
  1  6  4  0  0  0  0
  5  6  4  0  0  0  0
  6  7  1  0  0  0  0
  5  8  1  0  0  0  0
  3  9  1  0  0  0  0
  2 10  1  0  0  0  0
 10 11  4  0  0  0  0
 11 12  4  0  0  0  0
 12 13  4  0  0  0  0
 13 14  4  0  0  0  0
 10 15  4  0  0  0  0
 14 15  4  0  0  0  0
 15 16  1  0  0  0  0
 13 17  1  0  0  0  0
 12 18  1  0  0  0  0
  1 19  1  0  0  0  0
 11 19  1  0  0  0  0
 19 20  1  0  0  0  0
 19 21  1  0  0  0  0
 21 22  1  0  0  0  0
 22 23  1  0  0  0  0
 23 24  1  0  0  0  0
 24 25  1  0  0  0  0
 24 26  1  0  0  0  0
 24 27  1  0  0  0  0
 23 28  1  0  0  0  0
 28 29  1  0  0  0  0
 28 30  1  0  0  0  0
 28 31  1  0  0  0  0
 23 32  1  0  0  0  0
 21 33  1  0  0  0  0
 32 33  1  0  0  0  0
 32 34  1  0  0  0  0
 34 35  1  0  0  0  0
 34 36  1  0  0  0  0
 34 37  1  0  0  0  0
 32 38  1  0  0  0  0
 38 39  1  0  0  0  0
 38 40  1  0  0  0  0
 38 41  1  0  0  0  0
 19 42  1  0  0  0  0
 42 43  1  0  0  0  0
 43 44  1  0  0  0  0
 44 45  1  0  0  0  0
 45 46  1  0  0  0  0
 45 47  1  0  0  0  0
 45 48  1  0  0  0  0
 44 49  1  0  0  0  0
 49 50  1  0  0  0  0
 49 51  1  0  0  0  0
 49 52  1  0  0  0  0
 44 53  1  0  0  0  0
 42 54  1  0  0  0  0
 53 54  1  0  0  0  0
 53 55  1  0  0  0  0
 55 56  1  0  0  0  0
 55 57  1  0  0  0  0
 55 58  1  0  0  0  0
 53 59  1  0  0  0  0
 59 60  1  0  0  0  0
 59 61  1  0  0  0  0
 59 62  1  0  0  0  0
 19 63  1  0  0  0  0
 63 64  1  0  0  0  0
 64 65  1  0  0  0  0
 65 66  1  0  0  0  0
 66 67  1  0  0  0  0
 66 68  1  0  0  0  0
 66 69  1  0  0  0  0
 65 70  1  0  0  0  0
 70 71  1  0  0  0  0
 70 72  1  0  0  0  0
 70 73  1  0  0  0  0
 65 74  1  0  0  0  0
 63 75  1  0  0  0  0
 74 75  1  0  0  0  0
 74 76  1  0  0  0  0
 76 77  1  0  0  0  0
 76 78  1  0  0  0  0
 76 79  1  0  0  0  0
 74 80  1  0  0  0  0
 80 81  1  0  0  0  0
 80 82  1  0  0  0  0
 80 83  1  0  0  0  0
  4 84  1  0  0  0  0
 14 85  1  0  0  0  0
 19 86  1  0  0  0  0
 20 86  1  0  0  0  0
 86 87  4  0  0  0  0
 86 88  4  0  0  0  0
 87 89  4  0  0  0  0
 87 90  1  0  0  0  0
 88 91  4  0  0  0  0
 88 92  1  0  0  0  0
 89 93  1  0  0  0  0
 89 94  4  0  0  0  0
 91 94  4  0  0  0  0
 91 95  1  0  0  0  0
 94 96  1  0  0  0  0
M  END
