   18
Created with kallisto
C      0.9726   -1.2120    0.0282
C      2.3692   -1.2627    0.0528
C      0.3214    0.0203    0.0003
C      3.1136   -0.0800    0.0538
H      2.8457   -2.2364    0.0472
C      1.0555    1.2038   -0.0103
Br    -1.5672    0.0846   -0.0304
C      2.4512    1.1485    0.0072
O      4.4793   -0.0076    0.0482
H      0.5569    2.1689   -0.0363
H      3.0272    2.0707   -0.0081
C      5.1664   -1.0987    0.6626
C      6.6533   -0.7940    0.6313
H      4.9944   -2.0297    0.1125
H      4.8366   -1.2104    1.7021
H      7.0002   -0.6934   -0.4026
H      7.2238   -1.5909    1.1165
H      6.8681    0.1545    1.1340
