   14
Created with kallisto
C     -2.3192   -0.1128   -0.0188
O     -1.5419    1.0019   -0.0176
C     -1.5412   -1.2476   -0.0052
C     -0.2465    0.5811   -0.0082
C     -0.1908   -0.8086    0.0002
H     -1.9012   -2.2661   -0.0037
C      0.8744    1.4078   -0.0100
C      1.0701   -1.4300    0.0084
C      2.1196    0.7706   -0.0084
H      0.7784    2.4865   -0.0165
C      2.2181   -0.6237    0.0012
H      1.1582   -2.5121    0.0165
H      3.0261    1.3723   -0.0160
H      3.1999   -1.0926    0.0017
