   20

C          2.34300        1.16930        0.04599
C          3.12351        0.00890        0.06041
C          2.51757       -1.24034        0.02211
C          1.12894       -1.32554       -0.02496
C          0.34249       -0.16325       -0.04283
Br        -1.54126       -0.42799       -0.08297
C          0.93639        1.11595       -0.02271
C          0.12690        2.41115       -0.02806
C         -0.15076        2.88392        1.40207
C          0.77061        3.55775       -0.82392
H          2.86271        2.12333        0.09725
H          4.20672        0.08686        0.10811
H          0.66483       -2.31043       -0.04492
H         -0.83389        2.23241       -0.52280
H          0.77799        3.01402        1.96876
H         -0.77593        2.16664        1.94417
H         -0.67694        3.84479        1.39818
H          1.71016        3.89873       -0.37769
H          0.10080        4.42523       -0.85103
H          0.97010        3.25799       -1.85846
