
  xtb     01142215083D
 xtb: 6.4.1 (1a32961)
101108  0     0  0            999 V2000
   -0.9241   -2.0120   -0.3668 N   0  0  0  0  0  0  0  0  0  0  0  0
   -2.1539   -1.5056   -0.5599 C   0  0  0  0  0  0  0  0  0  0  0  0
   -3.0341   -2.0876   -1.4795 C   0  0  0  0  0  0  0  0  0  0  0  0
   -2.6405   -3.1950   -2.2000 C   0  0  0  0  0  0  0  0  0  0  0  0
   -1.3641   -3.7071   -1.9896 C   0  0  0  0  0  0  0  0  0  0  0  0
   -0.5523   -3.0790   -1.0674 C   0  0  0  0  0  0  0  0  0  0  0  0
    0.4455   -3.4427   -0.8673 H   0  0  0  0  0  0  0  0  0  0  0  0
   -1.0144   -4.5731   -2.5275 H   0  0  0  0  0  0  0  0  0  0  0  0
   -4.0198   -1.6806   -1.6315 H   0  0  0  0  0  0  0  0  0  0  0  0
   -2.5073   -0.3356    0.2396 C   0  0  0  0  0  0  0  0  0  0  0  0
   -1.5650    0.1261    1.0863 N   0  0  0  0  0  0  0  0  0  0  0  0
   -1.8527    1.1735    1.8534 C   0  0  0  0  0  0  0  0  0  0  0  0
   -3.0693    1.8266    1.8276 C   0  0  0  0  0  0  0  0  0  0  0  0
   -4.0453    1.3748    0.9463 C   0  0  0  0  0  0  0  0  0  0  0  0
   -3.7565    0.2876    0.1482 C   0  0  0  0  0  0  0  0  0  0  0  0
   -4.5021   -0.0764   -0.5385 H   0  0  0  0  0  0  0  0  0  0  0  0
   -3.2503    2.6648    2.4807 H   0  0  0  0  0  0  0  0  0  0  0  0
   -1.0580    1.4994    2.5067 H   0  0  0  0  0  0  0  0  0  0  0  0
    0.4215   -0.8165    0.9133 Ir  0  0  0  0  0  0  0  0  0  0  0  0
    0.8726   -2.2303    1.5405 H   0  0  0  0  0  0  0  0  0  0  0  0
    0.4643    0.5683   -0.6424 B   0  0  0  0  0  0  0  0  0  0  0  0
   -0.1354    0.2713   -1.8499 O   0  0  0  0  0  0  0  0  0  0  0  0
   -0.1987    1.4462   -2.6671 C   0  0  0  0  0  0  0  0  0  0  0  0
    0.1206    1.0803   -4.1143 C   0  0  0  0  0  0  0  0  0  0  0  0
    1.0514    0.5262   -4.1728 H   0  0  0  0  0  0  0  0  0  0  0  0
    0.1897    1.9791   -4.7214 H   0  0  0  0  0  0  0  0  0  0  0  0
   -0.6748    0.4515   -4.5071 H   0  0  0  0  0  0  0  0  0  0  0  0
   -1.6390    1.9710   -2.5843 C   0  0  0  0  0  0  0  0  0  0  0  0
   -1.7766    2.8415   -3.2185 H   0  0  0  0  0  0  0  0  0  0  0  0
   -2.3145    1.1830   -2.9114 H   0  0  0  0  0  0  0  0  0  0  0  0
   -1.8882    2.2227   -1.5553 H   0  0  0  0  0  0  0  0  0  0  0  0
    0.8367    2.3977   -1.9800 C   0  0  0  0  0  0  0  0  0  0  0  0
    0.9152    1.8654   -0.6493 O   0  0  0  0  0  0  0  0  0  0  0  0
    2.2401    2.2748   -2.5851 C   0  0  0  0  0  0  0  0  0  0  0  0
    2.5582    1.2365   -2.5335 H   0  0  0  0  0  0  0  0  0  0  0  0
    2.2642    2.6338   -3.6098 H   0  0  0  0  0  0  0  0  0  0  0  0
    2.9309    2.8645   -1.9871 H   0  0  0  0  0  0  0  0  0  0  0  0
    0.4279    3.8684   -1.9300 C   0  0  0  0  0  0  0  0  0  0  0  0
   -0.4770    4.0075   -1.3470 H   0  0  0  0  0  0  0  0  0  0  0  0
    1.2234    4.4428   -1.4616 H   0  0  0  0  0  0  0  0  0  0  0  0
    0.2717    4.2449   -2.9376 H   0  0  0  0  0  0  0  0  0  0  0  0
    1.5842    0.6196    1.8922 B   0  0  0  0  0  0  0  0  0  0  0  0
    2.9536    0.6696    2.0042 O   0  0  0  0  0  0  0  0  0  0  0  0
    3.3562    1.9523    2.5083 C   0  0  0  0  0  0  0  0  0  0  0  0
    4.5379    1.7884    3.4619 C   0  0  0  0  0  0  0  0  0  0  0  0
    4.3131    1.0758    4.2484 H   0  0  0  0  0  0  0  0  0  0  0  0
    5.3963    1.4195    2.9065 H   0  0  0  0  0  0  0  0  0  0  0  0
    4.7937    2.7468    3.9053 H   0  0  0  0  0  0  0  0  0  0  0  0
    3.7870    2.7788    1.2912 C   0  0  0  0  0  0  0  0  0  0  0  0
    4.0927    3.7810    1.5759 H   0  0  0  0  0  0  0  0  0  0  0  0
    4.6233    2.2772    0.8099 H   0  0  0  0  0  0  0  0  0  0  0  0
    2.9646    2.8145    0.5812 H   0  0  0  0  0  0  0  0  0  0  0  0
    2.0411    2.4902    3.1686 C   0  0  0  0  0  0  0  0  0  0  0  0
    1.0263    1.6988    2.5353 O   0  0  0  0  0  0  0  0  0  0  0  0
    1.7542    3.9689    2.9165 C   0  0  0  0  0  0  0  0  0  0  0  0
    1.6107    4.1533    1.8572 H   0  0  0  0  0  0  0  0  0  0  0  0
    0.8416    4.2482    3.4373 H   0  0  0  0  0  0  0  0  0  0  0  0
    2.5716    4.5794    3.2900 H   0  0  0  0  0  0  0  0  0  0  0  0
    1.9611    2.2090    4.6748 C   0  0  0  0  0  0  0  0  0  0  0  0
    2.0964    1.1477    4.8675 H   0  0  0  0  0  0  0  0  0  0  0  0
    2.7041    2.7823    5.2204 H   0  0  0  0  0  0  0  0  0  0  0  0
    0.9722    2.4870    5.0321 H   0  0  0  0  0  0  0  0  0  0  0  0
    2.2782   -1.3309    0.1741 B   0  0  0  0  0  0  0  0  0  0  0  0
    3.0764   -2.3335    0.6844 O   0  0  0  0  0  0  0  0  0  0  0  0
    4.3713   -2.3038    0.0670 C   0  0  0  0  0  0  0  0  0  0  0  0
    5.3137   -1.6252    1.0667 C   0  0  0  0  0  0  0  0  0  0  0  0
    4.9023   -0.6564    1.3350 H   0  0  0  0  0  0  0  0  0  0  0  0
    5.3561   -2.2333    1.9665 H   0  0  0  0  0  0  0  0  0  0  0  0
    6.3159   -1.5208    0.6634 H   0  0  0  0  0  0  0  0  0  0  0  0
    4.8467   -3.7331   -0.1908 C   0  0  0  0  0  0  0  0  0  0  0  0
    4.9663   -4.2401    0.7630 H   0  0  0  0  0  0  0  0  0  0  0  0
    5.8032   -3.7208   -0.7054 H   0  0  0  0  0  0  0  0  0  0  0  0
    4.1258   -4.2903   -0.7794 H   0  0  0  0  0  0  0  0  0  0  0  0
    4.1208   -1.4437   -1.2209 C   0  0  0  0  0  0  0  0  0  0  0  0
    2.8904   -0.7657   -0.9182 O   0  0  0  0  0  0  0  0  0  0  0  0
    5.2043   -0.4097   -1.5209 C   0  0  0  0  0  0  0  0  0  0  0  0
    6.1667   -0.8977   -1.6465 H   0  0  0  0  0  0  0  0  0  0  0  0
    4.9540    0.1138   -2.4400 H   0  0  0  0  0  0  0  0  0  0  0  0
    5.2627    0.3202   -0.7212 H   0  0  0  0  0  0  0  0  0  0  0  0
    3.8723   -2.2899   -2.4766 C   0  0  0  0  0  0  0  0  0  0  0  0
    3.0724   -3.0028   -2.2968 H   0  0  0  0  0  0  0  0  0  0  0  0
    3.5577   -1.6310   -3.2823 H   0  0  0  0  0  0  0  0  0  0  0  0
    4.7737   -2.8133   -2.7800 H   0  0  0  0  0  0  0  0  0  0  0  0
   -3.3108   -3.6528   -2.9113 H   0  0  0  0  0  0  0  0  0  0  0  0
   -5.0080    1.8593    0.8874 H   0  0  0  0  0  0  0  0  0  0  0  0
    0.2359   -1.6814    2.9603 C   0  0  0  0  0  0  0  0  0  0  0  0
   -0.9598   -2.0547    3.5099 C   0  0  0  0  0  0  0  0  0  0  0  0
    1.2122   -1.5751    3.9777 C   0  0  0  0  0  0  0  0  0  0  0  0
   -0.9512   -2.1788    5.2508 S   0  0  0  0  0  0  0  0  0  0  0  0
   -2.4104   -2.4365    2.6876 Cl  0  0  0  0  0  0  0  0  0  0  0  0
    0.7513   -1.7958    5.2528 C   0  0  0  0  0  0  0  0  0  0  0  0
    2.2338   -1.3413    3.7394 H   0  0  0  0  0  0  0  0  0  0  0  0
    1.4444   -1.7651    6.5275 C   0  0  0  0  0  0  0  0  0  0  0  0
    0.8424   -1.8319    7.5885 O   0  0  0  0  0  0  0  0  0  0  0  0
    2.9555   -1.7016    6.4713 C   0  0  0  0  0  0  0  0  0  0  0  0
    3.5153   -3.0774    6.0995 C   0  0  0  0  0  0  0  0  0  0  0  0
    3.3186   -1.4102    7.4580 H   0  0  0  0  0  0  0  0  0  0  0  0
    3.2721   -0.9628    5.7363 H   0  0  0  0  0  0  0  0  0  0  0  0
    3.1765   -3.8253    6.8132 H   0  0  0  0  0  0  0  0  0  0  0  0
    4.6015   -3.0495    6.1153 H   0  0  0  0  0  0  0  0  0  0  0  0
    3.1825   -3.3682    5.1066 H   0  0  0  0  0  0  0  0  0  0  0  0
  1  2  4  0  0  0  0
  2  3  4  0  0  0  0
  3  4  4  0  0  0  0
  4  5  4  0  0  0  0
  1  6  4  0  0  0  0
  5  6  4  0  0  0  0
  6  7  1  0  0  0  0
  5  8  1  0  0  0  0
  3  9  1  0  0  0  0
  2 10  1  0  0  0  0
 10 11  4  0  0  0  0
 11 12  4  0  0  0  0
 12 13  4  0  0  0  0
 13 14  4  0  0  0  0
 10 15  4  0  0  0  0
 14 15  4  0  0  0  0
 15 16  1  0  0  0  0
 13 17  1  0  0  0  0
 12 18  1  0  0  0  0
  1 19  1  0  0  0  0
 11 19  1  0  0  0  0
 19 20  1  0  0  0  0
 19 21  1  0  0  0  0
 21 22  1  0  0  0  0
 22 23  1  0  0  0  0
 23 24  1  0  0  0  0
 24 25  1  0  0  0  0
 24 26  1  0  0  0  0
 24 27  1  0  0  0  0
 23 28  1  0  0  0  0
 28 29  1  0  0  0  0
 28 30  1  0  0  0  0
 28 31  1  0  0  0  0
 23 32  1  0  0  0  0
 21 33  1  0  0  0  0
 32 33  1  0  0  0  0
 32 34  1  0  0  0  0
 34 35  1  0  0  0  0
 34 36  1  0  0  0  0
 34 37  1  0  0  0  0
 32 38  1  0  0  0  0
 38 39  1  0  0  0  0
 38 40  1  0  0  0  0
 38 41  1  0  0  0  0
 19 42  1  0  0  0  0
 42 43  1  0  0  0  0
 43 44  1  0  0  0  0
 44 45  1  0  0  0  0
 45 46  1  0  0  0  0
 45 47  1  0  0  0  0
 45 48  1  0  0  0  0
 44 49  1  0  0  0  0
 49 50  1  0  0  0  0
 49 51  1  0  0  0  0
 49 52  1  0  0  0  0
 44 53  1  0  0  0  0
 42 54  1  0  0  0  0
 53 54  1  0  0  0  0
 53 55  1  0  0  0  0
 55 56  1  0  0  0  0
 55 57  1  0  0  0  0
 55 58  1  0  0  0  0
 53 59  1  0  0  0  0
 59 60  1  0  0  0  0
 59 61  1  0  0  0  0
 59 62  1  0  0  0  0
 19 63  1  0  0  0  0
 63 64  1  0  0  0  0
 64 65  1  0  0  0  0
 65 66  1  0  0  0  0
 66 67  1  0  0  0  0
 66 68  1  0  0  0  0
 66 69  1  0  0  0  0
 65 70  1  0  0  0  0
 70 71  1  0  0  0  0
 70 72  1  0  0  0  0
 70 73  1  0  0  0  0
 65 74  1  0  0  0  0
 63 75  1  0  0  0  0
 74 75  1  0  0  0  0
 74 76  1  0  0  0  0
 76 77  1  0  0  0  0
 76 78  1  0  0  0  0
 76 79  1  0  0  0  0
 74 80  1  0  0  0  0
 80 81  1  0  0  0  0
 80 82  1  0  0  0  0
 80 83  1  0  0  0  0
  4 84  1  0  0  0  0
 14 85  1  0  0  0  0
 19 86  1  0  0  0  0
 20 86  1  0  0  0  0
 86 87  4  0  0  0  0
 86 88  4  0  0  0  0
 87 89  1  0  0  0  0
 87 90  1  0  0  0  0
 88 91  2  0  0  0  0
 89 91  1  0  0  0  0
 88 92  1  0  0  0  0
 91 93  1  0  0  0  0
 93 94  2  0  0  0  0
 93 95  1  0  0  0  0
 95 96  1  0  0  0  0
 95 97  1  0  0  0  0
 95 98  1  0  0  0  0
 96 99  1  0  0  0  0
 96100  1  0  0  0  0
 96101  1  0  0  0  0
M  END
