   11
Created with kallisto
C     -0.7623    1.0740    0.0276
N     -1.4080   -0.1180    0.0347
C      0.6186    1.2007   -0.0068
C     -0.6352   -1.2329    0.0096
Br     1.4316    2.8996   -0.0617
C      1.3913    0.0453   -0.0153
C      0.7564   -1.1977   -0.0046
C     -1.3353   -2.4889   -0.0334
H      2.4766    0.0990   -0.0391
H      1.3393   -2.1126   -0.0192
N     -1.8593   -3.5246   -0.0844
