
  xtb     01142215053D
 xtb: 6.4.1 (1a32961)
 96103  0     0  0            999 V2000
   -0.9389   -2.0089   -0.3476 N   0  0  0  0  0  0  0  0  0  0  0  0
   -2.2075   -1.5749   -0.4296 C   0  0  0  0  0  0  0  0  0  0  0  0
   -3.1549   -2.2636   -1.1973 C   0  0  0  0  0  0  0  0  0  0  0  0
   -2.7791   -3.3832   -1.9079 C   0  0  0  0  0  0  0  0  0  0  0  0
   -1.4543   -3.8030   -1.8366 C   0  0  0  0  0  0  0  0  0  0  0  0
   -0.5846   -3.0871   -1.0395 C   0  0  0  0  0  0  0  0  0  0  0  0
    0.4505   -3.3835   -0.9437 H   0  0  0  0  0  0  0  0  0  0  0  0
   -1.1125   -4.6690   -2.3794 H   0  0  0  0  0  0  0  0  0  0  0  0
   -4.1794   -1.9322   -1.2301 H   0  0  0  0  0  0  0  0  0  0  0  0
   -2.5299   -0.3571    0.3067 C   0  0  0  0  0  0  0  0  0  0  0  0
   -1.5736    0.1303    1.1202 N   0  0  0  0  0  0  0  0  0  0  0  0
   -1.8260    1.2399    1.8095 C   0  0  0  0  0  0  0  0  0  0  0  0
   -3.0159    1.9342    1.7285 C   0  0  0  0  0  0  0  0  0  0  0  0
   -4.0025    1.4599    0.8698 C   0  0  0  0  0  0  0  0  0  0  0  0
   -3.7519    0.3081    0.1545 C   0  0  0  0  0  0  0  0  0  0  0  0
   -4.4981   -0.0654   -0.5264 H   0  0  0  0  0  0  0  0  0  0  0  0
   -3.1692    2.8236    2.3181 H   0  0  0  0  0  0  0  0  0  0  0  0
   -1.0251    1.5793    2.4495 H   0  0  0  0  0  0  0  0  0  0  0  0
    0.4215   -0.8165    0.9133 Ir  0  0  0  0  0  0  0  0  0  0  0  0
    0.8726   -2.2303    1.5405 H   0  0  0  0  0  0  0  0  0  0  0  0
    0.3717    0.6311   -0.5796 B   0  0  0  0  0  0  0  0  0  0  0  0
   -0.1794    0.3324   -1.8064 O   0  0  0  0  0  0  0  0  0  0  0  0
   -0.2821    1.5218   -2.6002 C   0  0  0  0  0  0  0  0  0  0  0  0
    0.1043    1.2060   -4.0425 C   0  0  0  0  0  0  0  0  0  0  0  0
    1.0672    0.7078   -4.0797 H   0  0  0  0  0  0  0  0  0  0  0  0
    0.1410    2.1202   -4.6292 H   0  0  0  0  0  0  0  0  0  0  0  0
   -0.6399    0.5402   -4.4729 H   0  0  0  0  0  0  0  0  0  0  0  0
   -1.7492    1.9714   -2.5545 C   0  0  0  0  0  0  0  0  0  0  0  0
   -1.9094    2.8442   -3.1805 H   0  0  0  0  0  0  0  0  0  0  0  0
   -2.3757    1.1575   -2.9139 H   0  0  0  0  0  0  0  0  0  0  0  0
   -2.0429    2.1959   -1.5308 H   0  0  0  0  0  0  0  0  0  0  0  0
    0.6775    2.5090   -1.8576 C   0  0  0  0  0  0  0  0  0  0  0  0
    0.7196    1.9613   -0.5305 O   0  0  0  0  0  0  0  0  0  0  0  0
    2.1099    2.4501   -2.4011 C   0  0  0  0  0  0  0  0  0  0  0  0
    2.4630    1.4222   -2.3637 H   0  0  0  0  0  0  0  0  0  0  0  0
    2.1652    2.8382   -3.4138 H   0  0  0  0  0  0  0  0  0  0  0  0
    2.7523    3.0457   -1.7572 H   0  0  0  0  0  0  0  0  0  0  0  0
    0.2052    3.9601   -1.8099 C   0  0  0  0  0  0  0  0  0  0  0  0
   -0.7311    4.0545   -1.2684 H   0  0  0  0  0  0  0  0  0  0  0  0
    0.9540    4.5619   -1.3005 H   0  0  0  0  0  0  0  0  0  0  0  0
    0.0791    4.3414   -2.8198 H   0  0  0  0  0  0  0  0  0  0  0  0
    1.5893    0.6263    1.8899 B   0  0  0  0  0  0  0  0  0  0  0  0
    2.8600    1.0487    1.6245 O   0  0  0  0  0  0  0  0  0  0  0  0
    3.1923    2.2183    2.3888 C   0  0  0  0  0  0  0  0  0  0  0  0
    4.5497    2.0027    3.0620 C   0  0  0  0  0  0  0  0  0  0  0  0
    4.5612    1.0828    3.6376 H   0  0  0  0  0  0  0  0  0  0  0  0
    5.3142    1.9238    2.2938 H   0  0  0  0  0  0  0  0  0  0  0  0
    4.7888    2.8431    3.7066 H   0  0  0  0  0  0  0  0  0  0  0  0
    3.3074    3.3742    1.3892 C   0  0  0  0  0  0  0  0  0  0  0  0
    3.4965    4.3171    1.8927 H   0  0  0  0  0  0  0  0  0  0  0  0
    4.1330    3.1627    0.7139 H   0  0  0  0  0  0  0  0  0  0  0  0
    2.3983    3.4341    0.7978 H   0  0  0  0  0  0  0  0  0  0  0  0
    1.9812    2.3608    3.3864 C   0  0  0  0  0  0  0  0  0  0  0  0
    1.0603    1.3536    2.9370 O   0  0  0  0  0  0  0  0  0  0  0  0
    1.2636    3.7121    3.3282 C   0  0  0  0  0  0  0  0  0  0  0  0
    0.8739    3.8963    2.3321 H   0  0  0  0  0  0  0  0  0  0  0  0
    0.4275    3.6946    4.0240 H   0  0  0  0  0  0  0  0  0  0  0  0
    1.9372    4.5142    3.6143 H   0  0  0  0  0  0  0  0  0  0  0  0
    2.3281    2.0587    4.8488 C   0  0  0  0  0  0  0  0  0  0  0  0
    2.7982    1.0859    4.9482 H   0  0  0  0  0  0  0  0  0  0  0  0
    2.9896    2.8200    5.2500 H   0  0  0  0  0  0  0  0  0  0  0  0
    1.4076    2.0522    5.4290 H   0  0  0  0  0  0  0  0  0  0  0  0
    2.2782   -1.3309    0.1741 B   0  0  0  0  0  0  0  0  0  0  0  0
    3.1757   -2.1872    0.7691 O   0  0  0  0  0  0  0  0  0  0  0  0
    4.4230   -2.1715    0.0579 C   0  0  0  0  0  0  0  0  0  0  0  0
    5.3693   -1.2671    0.8525 C   0  0  0  0  0  0  0  0  0  0  0  0
    4.9154   -0.2862    0.9608 H   0  0  0  0  0  0  0  0  0  0  0  0
    5.4929   -1.6872    1.8474 H   0  0  0  0  0  0  0  0  0  0  0  0
    6.3399   -1.1902    0.3734 H   0  0  0  0  0  0  0  0  0  0  0  0
    4.9951   -3.5866    0.0054 C   0  0  0  0  0  0  0  0  0  0  0  0
    5.2316   -3.9035    1.0176 H   0  0  0  0  0  0  0  0  0  0  0  0
    5.9036   -3.5986   -0.5898 H   0  0  0  0  0  0  0  0  0  0  0  0
    4.2800   -4.2890   -0.4100 H   0  0  0  0  0  0  0  0  0  0  0  0
    4.0164   -1.5623   -1.3289 C   0  0  0  0  0  0  0  0  0  0  0  0
    2.7690   -0.9079   -1.0367 O   0  0  0  0  0  0  0  0  0  0  0  0
    5.0010   -0.5401   -1.8921 C   0  0  0  0  0  0  0  0  0  0  0  0
    5.9838   -0.9888   -2.0055 H   0  0  0  0  0  0  0  0  0  0  0  0
    4.6525   -0.2082   -2.8670 H   0  0  0  0  0  0  0  0  0  0  0  0
    5.0645    0.3245   -1.2405 H   0  0  0  0  0  0  0  0  0  0  0  0
    3.7291   -2.6268   -2.3958 C   0  0  0  0  0  0  0  0  0  0  0  0
    3.0126   -3.3526   -2.0208 H   0  0  0  0  0  0  0  0  0  0  0  0
    3.2907   -2.1402   -3.2637 H   0  0  0  0  0  0  0  0  0  0  0  0
    4.6417   -3.1328   -2.6953 H   0  0  0  0  0  0  0  0  0  0  0  0
   -3.4988   -3.9215   -2.5055 H   0  0  0  0  0  0  0  0  0  0  0  0
   -4.9413    1.9813    0.7623 H   0  0  0  0  0  0  0  0  0  0  0  0
    0.2359   -1.6814    2.9603 C   0  0  0  0  0  0  0  0  0  0  0  0
   -1.0540   -1.8930    3.1645 N   0  0  0  0  0  0  0  0  0  0  0  0
    1.1125   -1.6856    4.0570 C   0  0  0  0  0  0  0  0  0  0  0  0
   -1.5410   -1.9877    4.4035 C   0  0  0  0  0  0  0  0  0  0  0  0
    2.9796   -1.5974    3.8086 Br  0  0  0  0  0  0  0  0  0  0  0  0
    0.6282   -1.7923    5.3484 C   0  0  0  0  0  0  0  0  0  0  0  0
   -0.7403   -1.9205    5.5421 C   0  0  0  0  0  0  0  0  0  0  0  0
   -2.9414   -2.1745    4.5233 C   0  0  0  0  0  0  0  0  0  0  0  0
    1.3068   -1.7826    6.1877 H   0  0  0  0  0  0  0  0  0  0  0  0
   -1.1673   -1.9901    6.5297 H   0  0  0  0  0  0  0  0  0  0  0  0
   -4.0742   -2.3210    4.6359 N   0  0  0  0  0  0  0  0  0  0  0  0
  1  2  4  0  0  0  0
  2  3  4  0  0  0  0
  3  4  4  0  0  0  0
  4  5  4  0  0  0  0
  1  6  4  0  0  0  0
  5  6  4  0  0  0  0
  6  7  1  0  0  0  0
  5  8  1  0  0  0  0
  3  9  1  0  0  0  0
  2 10  1  0  0  0  0
 10 11  4  0  0  0  0
 11 12  4  0  0  0  0
 12 13  4  0  0  0  0
 13 14  4  0  0  0  0
 10 15  4  0  0  0  0
 14 15  4  0  0  0  0
 15 16  1  0  0  0  0
 13 17  1  0  0  0  0
 12 18  1  0  0  0  0
  1 19  1  0  0  0  0
 11 19  1  0  0  0  0
 19 20  1  0  0  0  0
 19 21  1  0  0  0  0
 21 22  1  0  0  0  0
 22 23  1  0  0  0  0
 23 24  1  0  0  0  0
 24 25  1  0  0  0  0
 24 26  1  0  0  0  0
 24 27  1  0  0  0  0
 23 28  1  0  0  0  0
 28 29  1  0  0  0  0
 28 30  1  0  0  0  0
 28 31  1  0  0  0  0
 23 32  1  0  0  0  0
 21 33  1  0  0  0  0
 32 33  1  0  0  0  0
 32 34  1  0  0  0  0
 34 35  1  0  0  0  0
 34 36  1  0  0  0  0
 34 37  1  0  0  0  0
 32 38  1  0  0  0  0
 38 39  1  0  0  0  0
 38 40  1  0  0  0  0
 38 41  1  0  0  0  0
 19 42  1  0  0  0  0
 42 43  1  0  0  0  0
 43 44  1  0  0  0  0
 44 45  1  0  0  0  0
 45 46  1  0  0  0  0
 45 47  1  0  0  0  0
 45 48  1  0  0  0  0
 44 49  1  0  0  0  0
 49 50  1  0  0  0  0
 49 51  1  0  0  0  0
 49 52  1  0  0  0  0
 44 53  1  0  0  0  0
 42 54  1  0  0  0  0
 53 54  1  0  0  0  0
 53 55  1  0  0  0  0
 55 56  1  0  0  0  0
 55 57  1  0  0  0  0
 55 58  1  0  0  0  0
 53 59  1  0  0  0  0
 59 60  1  0  0  0  0
 59 61  1  0  0  0  0
 59 62  1  0  0  0  0
 19 63  1  0  0  0  0
 63 64  1  0  0  0  0
 64 65  1  0  0  0  0
 65 66  1  0  0  0  0
 66 67  1  0  0  0  0
 66 68  1  0  0  0  0
 66 69  1  0  0  0  0
 65 70  1  0  0  0  0
 70 71  1  0  0  0  0
 70 72  1  0  0  0  0
 70 73  1  0  0  0  0
 65 74  1  0  0  0  0
 63 75  1  0  0  0  0
 74 75  1  0  0  0  0
 74 76  1  0  0  0  0
 76 77  1  0  0  0  0
 76 78  1  0  0  0  0
 76 79  1  0  0  0  0
 74 80  1  0  0  0  0
 80 81  1  0  0  0  0
 80 82  1  0  0  0  0
 80 83  1  0  0  0  0
  4 84  1  0  0  0  0
 14 85  1  0  0  0  0
 19 86  1  0  0  0  0
 20 86  1  0  0  0  0
 86 87  4  0  0  0  0
 86 88  4  0  0  0  0
 87 89  4  0  0  0  0
 88 90  1  0  0  0  0
 88 91  4  0  0  0  0
 89 92  4  0  0  0  0
 91 92  4  0  0  0  0
 89 93  1  0  0  0  0
 91 94  1  0  0  0  0
 92 95  1  0  0  0  0
 93 96  3  0  0  0  0
M  END
