
  xtb     01142215263D
 xtb: 6.4.1 (1a32961)
 95102  0     0  0            999 V2000
   -0.9551   -2.0327   -0.3580 N   0  0  0  0  0  0  0  0  0  0  0  0
   -2.1956   -1.5415   -0.5172 C   0  0  0  0  0  0  0  0  0  0  0  0
   -3.0644   -2.0795   -1.4735 C   0  0  0  0  0  0  0  0  0  0  0  0
   -2.6477   -3.1308   -2.2629 C   0  0  0  0  0  0  0  0  0  0  0  0
   -1.3632   -3.6325   -2.0816 C   0  0  0  0  0  0  0  0  0  0  0  0
   -0.5626   -3.0472   -1.1213 C   0  0  0  0  0  0  0  0  0  0  0  0
    0.4421   -3.4025   -0.9424 H   0  0  0  0  0  0  0  0  0  0  0  0
   -0.9970   -4.4554   -2.6733 H   0  0  0  0  0  0  0  0  0  0  0  0
   -4.0546   -1.6772   -1.6069 H   0  0  0  0  0  0  0  0  0  0  0  0
   -2.5691   -0.4247    0.3499 C   0  0  0  0  0  0  0  0  0  0  0  0
   -1.6098    0.0539    1.1665 N   0  0  0  0  0  0  0  0  0  0  0  0
   -1.9033    1.0680    1.9747 C   0  0  0  0  0  0  0  0  0  0  0  0
   -3.1487    1.6635    2.0278 C   0  0  0  0  0  0  0  0  0  0  0  0
   -4.1495    1.1821    1.1912 C   0  0  0  0  0  0  0  0  0  0  0  0
   -3.8526    0.1328    0.3461 C   0  0  0  0  0  0  0  0  0  0  0  0
   -4.6179   -0.2541   -0.3052 H   0  0  0  0  0  0  0  0  0  0  0  0
   -3.3333    2.4776    2.7095 H   0  0  0  0  0  0  0  0  0  0  0  0
   -1.0902    1.4139    2.5940 H   0  0  0  0  0  0  0  0  0  0  0  0
    0.4215   -0.8165    0.9133 Ir  0  0  0  0  0  0  0  0  0  0  0  0
    0.8726   -2.2303    1.5405 H   0  0  0  0  0  0  0  0  0  0  0  0
    0.4157    0.5708   -0.6397 B   0  0  0  0  0  0  0  0  0  0  0  0
   -0.1884    0.2535   -1.8403 O   0  0  0  0  0  0  0  0  0  0  0  0
   -0.2546    1.4152   -2.6767 C   0  0  0  0  0  0  0  0  0  0  0  0
    0.0568    1.0262   -4.1194 C   0  0  0  0  0  0  0  0  0  0  0  0
    0.9879    0.4725   -4.1739 H   0  0  0  0  0  0  0  0  0  0  0  0
    0.1217    1.9153   -4.7410 H   0  0  0  0  0  0  0  0  0  0  0  0
   -0.7403    0.3907   -4.4975 H   0  0  0  0  0  0  0  0  0  0  0  0
   -1.6934    1.9436   -2.5923 C   0  0  0  0  0  0  0  0  0  0  0  0
   -1.8325    2.8079   -3.2345 H   0  0  0  0  0  0  0  0  0  0  0  0
   -2.3722    1.1538   -2.9078 H   0  0  0  0  0  0  0  0  0  0  0  0
   -1.9348    2.2059   -1.5643 H   0  0  0  0  0  0  0  0  0  0  0  0
    0.7862    2.3748   -2.0102 C   0  0  0  0  0  0  0  0  0  0  0  0
    0.8600    1.8697   -0.6682 O   0  0  0  0  0  0  0  0  0  0  0  0
    2.1892    2.2268   -2.6106 C   0  0  0  0  0  0  0  0  0  0  0  0
    2.4976    1.1868   -2.5378 H   0  0  0  0  0  0  0  0  0  0  0  0
    2.2183    2.5659   -3.6419 H   0  0  0  0  0  0  0  0  0  0  0  0
    2.8841    2.8211   -2.0223 H   0  0  0  0  0  0  0  0  0  0  0  0
    0.3885    3.8491   -1.9929 C   0  0  0  0  0  0  0  0  0  0  0  0
   -0.5166    4.0082   -1.4152 H   0  0  0  0  0  0  0  0  0  0  0  0
    1.1877    4.4275   -1.5357 H   0  0  0  0  0  0  0  0  0  0  0  0
    0.2372    4.2045   -3.0088 H   0  0  0  0  0  0  0  0  0  0  0  0
    1.5816    0.6379    1.8588 B   0  0  0  0  0  0  0  0  0  0  0  0
    2.9463    0.7607    1.8866 O   0  0  0  0  0  0  0  0  0  0  0  0
    3.3134    2.0378    2.4329 C   0  0  0  0  0  0  0  0  0  0  0  0
    4.5448    1.8864    3.3237 C   0  0  0  0  0  0  0  0  0  0  0  0
    4.3930    1.1227    4.0793 H   0  0  0  0  0  0  0  0  0  0  0  0
    5.3938    1.5930    2.7119 H   0  0  0  0  0  0  0  0  0  0  0  0
    4.7727    2.8326    3.8066 H   0  0  0  0  0  0  0  0  0  0  0  0
    3.6490    2.9362    1.2368 C   0  0  0  0  0  0  0  0  0  0  0  0
    3.9214    3.9381    1.5540 H   0  0  0  0  0  0  0  0  0  0  0  0
    4.4843    2.4964    0.6968 H   0  0  0  0  0  0  0  0  0  0  0  0
    2.7941    2.9641    0.5661 H   0  0  0  0  0  0  0  0  0  0  0  0
    2.0087    2.4823    3.1797 C   0  0  0  0  0  0  0  0  0  0  0  0
    1.0016    1.6563    2.5758 O   0  0  0  0  0  0  0  0  0  0  0  0
    1.6287    3.9497    2.9901 C   0  0  0  0  0  0  0  0  0  0  0  0
    1.4176    4.1570    1.9465 H   0  0  0  0  0  0  0  0  0  0  0  0
    0.7329    4.1622    3.5685 H   0  0  0  0  0  0  0  0  0  0  0  0
    2.4309    4.5936    3.3393 H   0  0  0  0  0  0  0  0  0  0  0  0
    2.0262    2.1560    4.6781 C   0  0  0  0  0  0  0  0  0  0  0  0
    2.2618    1.1075    4.8376 H   0  0  0  0  0  0  0  0  0  0  0  0
    2.7446    2.7771    5.2039 H   0  0  0  0  0  0  0  0  0  0  0  0
    1.0358    2.3404    5.0884 H   0  0  0  0  0  0  0  0  0  0  0  0
    2.2782   -1.3309    0.1741 B   0  0  0  0  0  0  0  0  0  0  0  0
    3.0838   -2.2992    0.7319 O   0  0  0  0  0  0  0  0  0  0  0  0
    4.3779   -2.2895    0.1127 C   0  0  0  0  0  0  0  0  0  0  0  0
    5.3188   -1.5691    1.0839 C   0  0  0  0  0  0  0  0  0  0  0  0
    4.9083   -0.5895    1.3109 H   0  0  0  0  0  0  0  0  0  0  0  0
    5.3592   -2.1380    2.0094 H   0  0  0  0  0  0  0  0  0  0  0  0
    6.3217   -1.4825    0.6782 H   0  0  0  0  0  0  0  0  0  0  0  0
    4.8566   -3.7275   -0.0852 C   0  0  0  0  0  0  0  0  0  0  0  0
    4.9782   -4.1921    0.8898 H   0  0  0  0  0  0  0  0  0  0  0  0
    5.8125   -3.7358   -0.6008 H   0  0  0  0  0  0  0  0  0  0  0  0
    4.1360   -4.3116   -0.6477 H   0  0  0  0  0  0  0  0  0  0  0  0
    4.1226   -1.4844   -1.2109 C   0  0  0  0  0  0  0  0  0  0  0  0
    2.8789   -0.8135   -0.9454 O   0  0  0  0  0  0  0  0  0  0  0  0
    5.1896   -0.4428   -1.5416 C   0  0  0  0  0  0  0  0  0  0  0  0
    6.1614   -0.9173   -1.6444 H   0  0  0  0  0  0  0  0  0  0  0  0
    4.9349    0.0428   -2.4801 H   0  0  0  0  0  0  0  0  0  0  0  0
    5.2294    0.3154   -0.7676 H   0  0  0  0  0  0  0  0  0  0  0  0
    3.8981   -2.3817   -2.4350 C   0  0  0  0  0  0  0  0  0  0  0  0
    3.1116   -3.1035   -2.2336 H   0  0  0  0  0  0  0  0  0  0  0  0
    3.5766   -1.7598   -3.2668 H   0  0  0  0  0  0  0  0  0  0  0  0
    4.8114   -2.8988   -2.7126 H   0  0  0  0  0  0  0  0  0  0  0  0
   -3.3069   -3.5524   -3.0061 H   0  0  0  0  0  0  0  0  0  0  0  0
   -5.1377    1.6162    1.2011 H   0  0  0  0  0  0  0  0  0  0  0  0
    0.2359   -1.6814    2.9603 C   0  0  0  0  0  0  0  0  0  0  0  0
   -1.0498   -2.0589    3.3648 C   0  0  0  0  0  0  0  0  0  0  0  0
    1.1962   -1.5283    3.9677 C   0  0  0  0  0  0  0  0  0  0  0  0
   -1.3002   -2.1583    4.7164 C   0  0  0  0  0  0  0  0  0  0  0  0
   -1.8442   -2.2638    2.6659 H   0  0  0  0  0  0  0  0  0  0  0  0
    0.8049   -1.6694    5.2829 C   0  0  0  0  0  0  0  0  0  0  0  0
    2.2182   -1.3012    3.7160 H   0  0  0  0  0  0  0  0  0  0  0  0
   -2.5477   -2.4782    5.1371 F   0  0  0  0  0  0  0  0  0  0  0  0
   -0.4235   -1.9674    5.6777 N   0  0  0  0  0  0  0  0  0  0  0  0
    1.9425   -1.4565    6.5615 Cl  0  0  0  0  0  0  0  0  0  0  0  0
  1  2  4  0  0  0  0
  2  3  4  0  0  0  0
  3  4  4  0  0  0  0
  4  5  4  0  0  0  0
  1  6  4  0  0  0  0
  5  6  4  0  0  0  0
  6  7  1  0  0  0  0
  5  8  1  0  0  0  0
  3  9  1  0  0  0  0
  2 10  1  0  0  0  0
 10 11  4  0  0  0  0
 11 12  4  0  0  0  0
 12 13  4  0  0  0  0
 13 14  4  0  0  0  0
 10 15  4  0  0  0  0
 14 15  4  0  0  0  0
 15 16  1  0  0  0  0
 13 17  1  0  0  0  0
 12 18  1  0  0  0  0
  1 19  1  0  0  0  0
 11 19  1  0  0  0  0
 19 20  1  0  0  0  0
 19 21  1  0  0  0  0
 21 22  1  0  0  0  0
 22 23  1  0  0  0  0
 23 24  1  0  0  0  0
 24 25  1  0  0  0  0
 24 26  1  0  0  0  0
 24 27  1  0  0  0  0
 23 28  1  0  0  0  0
 28 29  1  0  0  0  0
 28 30  1  0  0  0  0
 28 31  1  0  0  0  0
 23 32  1  0  0  0  0
 21 33  1  0  0  0  0
 32 33  1  0  0  0  0
 32 34  1  0  0  0  0
 34 35  1  0  0  0  0
 34 36  1  0  0  0  0
 34 37  1  0  0  0  0
 32 38  1  0  0  0  0
 38 39  1  0  0  0  0
 38 40  1  0  0  0  0
 38 41  1  0  0  0  0
 19 42  1  0  0  0  0
 42 43  1  0  0  0  0
 43 44  1  0  0  0  0
 44 45  1  0  0  0  0
 45 46  1  0  0  0  0
 45 47  1  0  0  0  0
 45 48  1  0  0  0  0
 44 49  1  0  0  0  0
 49 50  1  0  0  0  0
 49 51  1  0  0  0  0
 49 52  1  0  0  0  0
 44 53  1  0  0  0  0
 42 54  1  0  0  0  0
 53 54  1  0  0  0  0
 53 55  1  0  0  0  0
 55 56  1  0  0  0  0
 55 57  1  0  0  0  0
 55 58  1  0  0  0  0
 53 59  1  0  0  0  0
 59 60  1  0  0  0  0
 59 61  1  0  0  0  0
 59 62  1  0  0  0  0
 19 63  1  0  0  0  0
 63 64  1  0  0  0  0
 64 65  1  0  0  0  0
 65 66  1  0  0  0  0
 66 67  1  0  0  0  0
 66 68  1  0  0  0  0
 66 69  1  0  0  0  0
 65 70  1  0  0  0  0
 70 71  1  0  0  0  0
 70 72  1  0  0  0  0
 70 73  1  0  0  0  0
 65 74  1  0  0  0  0
 63 75  1  0  0  0  0
 74 75  1  0  0  0  0
 74 76  1  0  0  0  0
 76 77  1  0  0  0  0
 76 78  1  0  0  0  0
 76 79  1  0  0  0  0
 74 80  1  0  0  0  0
 80 81  1  0  0  0  0
 80 82  1  0  0  0  0
 80 83  1  0  0  0  0
  4 84  1  0  0  0  0
 14 85  1  0  0  0  0
 19 86  1  0  0  0  0
 20 86  1  0  0  0  0
 86 87  4  0  0  0  0
 86 88  4  0  0  0  0
 87 89  4  0  0  0  0
 87 90  1  0  0  0  0
 88 91  4  0  0  0  0
 88 92  1  0  0  0  0
 89 93  1  0  0  0  0
 89 94  4  0  0  0  0
 91 94  4  0  0  0  0
 91 95  1  0  0  0  0
M  END
