   18

C          1.05552        1.20382       -0.01029
C          2.45123        1.14851        0.00722
C          3.11363       -0.08001        0.05380
O          4.47930       -0.00756        0.04817
C          5.16643       -1.09875        0.66257
C          6.65335       -0.79401        0.63130
C          2.36924       -1.26266        0.05281
C          0.97264       -1.21200        0.02820
C          0.32144        0.02029        0.00031
Br        -1.56715        0.08455       -0.03043
H          3.02718        2.07075       -0.00810
H          4.99440       -2.02968        0.11248
H          4.83663       -1.21037        1.70210
H          7.00021       -0.69344       -0.40263
H          7.22379       -1.59091        1.11650
H          6.86808        0.15445        1.13397
H          2.84567       -2.23641        0.04722
H          0.40320       -2.13806        0.01915
