   12
Created with kallisto
C     -0.1114    1.1034   -0.0030
C     -1.4192    0.6695   -0.0054
N      0.6971   -0.0008   -0.0100
C     -1.3949   -0.7460   -0.0055
H     -2.2958    1.3041   -0.0063
C     -0.0733   -1.1335   -0.0036
C      2.1413    0.0122   -0.0314
H     -2.2489   -1.4104   -0.0072
H      0.3755   -2.1182   -0.0026
H      2.4995    1.0436    0.0142
H      2.4740   -0.4579   -0.9609
H      2.5048   -0.5471    0.8336
