
  xtb     01142213533D
 xtb: 6.4.1 (1a32961)
 97104  0     0  0            999 V2000
   -0.8629   -2.0361   -0.3914 N   0  0  0  0  0  0  0  0  0  0  0  0
   -2.1106   -1.5704   -0.5980 C   0  0  0  0  0  0  0  0  0  0  0  0
   -2.9533   -2.1672   -1.5454 C   0  0  0  0  0  0  0  0  0  0  0  0
   -2.5079   -3.2402   -2.2841 C   0  0  0  0  0  0  0  0  0  0  0  0
   -1.2139   -3.7082   -2.0628 C   0  0  0  0  0  0  0  0  0  0  0  0
   -0.4441   -3.0741   -1.1121 C   0  0  0  0  0  0  0  0  0  0  0  0
    0.5631   -3.4074   -0.9045 H   0  0  0  0  0  0  0  0  0  0  0  0
   -0.8226   -4.5466   -2.6160 H   0  0  0  0  0  0  0  0  0  0  0  0
   -3.9518   -1.7936   -1.7034 H   0  0  0  0  0  0  0  0  0  0  0  0
   -2.5125   -0.4264    0.2068 C   0  0  0  0  0  0  0  0  0  0  0  0
   -1.6010    0.0401    1.0874 N   0  0  0  0  0  0  0  0  0  0  0  0
   -1.9299    1.0763    1.8555 C   0  0  0  0  0  0  0  0  0  0  0  0
   -3.1500    1.7170    1.7919 C   0  0  0  0  0  0  0  0  0  0  0  0
   -4.0936    1.2609    0.8744 C   0  0  0  0  0  0  0  0  0  0  0  0
   -3.7680    0.1826    0.0814 C   0  0  0  0  0  0  0  0  0  0  0  0
   -4.4858   -0.1853   -0.6329 H   0  0  0  0  0  0  0  0  0  0  0  0
   -3.3636    2.5493    2.4430 H   0  0  0  0  0  0  0  0  0  0  0  0
   -1.1641    1.3998    2.5432 H   0  0  0  0  0  0  0  0  0  0  0  0
    0.4215   -0.8165    0.9133 Ir  0  0  0  0  0  0  0  0  0  0  0  0
    0.8726   -2.2303    1.5405 H   0  0  0  0  0  0  0  0  0  0  0  0
    0.4356    0.6001   -0.6246 B   0  0  0  0  0  0  0  0  0  0  0  0
   -0.2523    0.3407   -1.7971 O   0  0  0  0  0  0  0  0  0  0  0  0
   -0.2897    1.5139   -2.6153 C   0  0  0  0  0  0  0  0  0  0  0  0
   -0.0971    1.1259   -4.0794 C   0  0  0  0  0  0  0  0  0  0  0  0
    0.7874    0.5093   -4.2003 H   0  0  0  0  0  0  0  0  0  0  0  0
   -0.0088    2.0179   -4.6944 H   0  0  0  0  0  0  0  0  0  0  0  0
   -0.9591    0.5529   -4.4134 H   0  0  0  0  0  0  0  0  0  0  0  0
   -1.6793    2.1427   -2.4370 C   0  0  0  0  0  0  0  0  0  0  0  0
   -1.7978    3.0200   -3.0661 H   0  0  0  0  0  0  0  0  0  0  0  0
   -2.4326    1.4060   -2.7099 H   0  0  0  0  0  0  0  0  0  0  0  0
   -1.8366    2.4133   -1.3946 H   0  0  0  0  0  0  0  0  0  0  0  0
    0.8536    2.3905   -2.0066 C   0  0  0  0  0  0  0  0  0  0  0  0
    0.9692    1.8683   -0.6766 O   0  0  0  0  0  0  0  0  0  0  0  0
    2.2044    2.1527   -2.6927 C   0  0  0  0  0  0  0  0  0  0  0  0
    2.4389    1.0918   -2.6566 H   0  0  0  0  0  0  0  0  0  0  0  0
    2.1983    2.5100   -3.7185 H   0  0  0  0  0  0  0  0  0  0  0  0
    2.9753    2.6820   -2.1374 H   0  0  0  0  0  0  0  0  0  0  0  0
    0.5636    3.8893   -1.9563 C   0  0  0  0  0  0  0  0  0  0  0  0
   -0.2844    4.1051   -1.3137 H   0  0  0  0  0  0  0  0  0  0  0  0
    1.4324    4.4066   -1.5559 H   0  0  0  0  0  0  0  0  0  0  0  0
    0.3646    4.2639   -2.9573 H   0  0  0  0  0  0  0  0  0  0  0  0
    1.5214    0.6815    1.8670 B   0  0  0  0  0  0  0  0  0  0  0  0
    2.8947    0.8027    1.9196 O   0  0  0  0  0  0  0  0  0  0  0  0
    3.2623    2.0927    2.4264 C   0  0  0  0  0  0  0  0  0  0  0  0
    4.4663    1.9552    3.3574 C   0  0  0  0  0  0  0  0  0  0  0  0
    4.2753    1.2294    4.1402 H   0  0  0  0  0  0  0  0  0  0  0  0
    5.3225    1.6133    2.7816 H   0  0  0  0  0  0  0  0  0  0  0  0
    4.7050    2.9175    3.8021 H   0  0  0  0  0  0  0  0  0  0  0  0
    3.6493    2.9451    1.2121 C   0  0  0  0  0  0  0  0  0  0  0  0
    3.9171    3.9569    1.5015 H   0  0  0  0  0  0  0  0  0  0  0  0
    4.5015    2.4809    0.7207 H   0  0  0  0  0  0  0  0  0  0  0  0
    2.8205    2.9533    0.5090 H   0  0  0  0  0  0  0  0  0  0  0  0
    1.9428    2.5791    3.1186 C   0  0  0  0  0  0  0  0  0  0  0  0
    0.9427    1.7451    2.5202 O   0  0  0  0  0  0  0  0  0  0  0  0
    1.5896    4.0441    2.8678 C   0  0  0  0  0  0  0  0  0  0  0  0
    1.4165    4.2180    1.8109 H   0  0  0  0  0  0  0  0  0  0  0  0
    0.6773    4.2877    3.4066 H   0  0  0  0  0  0  0  0  0  0  0  0
    2.3885    4.6904    3.2211 H   0  0  0  0  0  0  0  0  0  0  0  0
    1.9154    2.3019    4.6275 C   0  0  0  0  0  0  0  0  0  0  0  0
    2.1040    1.2485    4.8150 H   0  0  0  0  0  0  0  0  0  0  0  0
    2.6463    2.9108    5.1509 H   0  0  0  0  0  0  0  0  0  0  0  0
    0.9239    2.5369    5.0073 H   0  0  0  0  0  0  0  0  0  0  0  0
    2.2782   -1.3309    0.1741 B   0  0  0  0  0  0  0  0  0  0  0  0
    3.1577   -2.2197    0.7610 O   0  0  0  0  0  0  0  0  0  0  0  0
    4.4149   -2.2060    0.0745 C   0  0  0  0  0  0  0  0  0  0  0  0
    5.3604   -1.3340    0.9079 C   0  0  0  0  0  0  0  0  0  0  0  0
    4.9074   -0.3564    1.0459 H   0  0  0  0  0  0  0  0  0  0  0  0
    5.4761   -1.7904    1.8874 H   0  0  0  0  0  0  0  0  0  0  0  0
    6.3359   -1.2439    0.4406 H   0  0  0  0  0  0  0  0  0  0  0  0
    4.9716   -3.6272   -0.0038 C   0  0  0  0  0  0  0  0  0  0  0  0
    5.1935   -3.9734    1.0021 H   0  0  0  0  0  0  0  0  0  0  0  0
    5.8867   -3.6381   -0.5893 H   0  0  0  0  0  0  0  0  0  0  0  0
    4.2522   -4.3099   -0.4434 H   0  0  0  0  0  0  0  0  0  0  0  0
    4.0451   -1.5598   -1.3052 C   0  0  0  0  0  0  0  0  0  0  0  0
    2.8039   -0.8946   -1.0222 O   0  0  0  0  0  0  0  0  0  0  0  0
    5.0586   -0.5435   -1.8278 C   0  0  0  0  0  0  0  0  0  0  0  0
    6.0371   -1.0052   -1.9278 H   0  0  0  0  0  0  0  0  0  0  0  0
    4.7383   -0.1878   -2.8039 H   0  0  0  0  0  0  0  0  0  0  0  0
    5.1201    0.3089   -1.1602 H   0  0  0  0  0  0  0  0  0  0  0  0
    3.7639   -2.5976   -2.4003 C   0  0  0  0  0  0  0  0  0  0  0  0
    3.0278   -3.3182   -2.0544 H   0  0  0  0  0  0  0  0  0  0  0  0
    3.3507   -2.0866   -3.2667 H   0  0  0  0  0  0  0  0  0  0  0  0
    4.6739   -3.1123   -2.6932 H   0  0  0  0  0  0  0  0  0  0  0  0
   -3.1476   -3.7065   -3.0180 H   0  0  0  0  0  0  0  0  0  0  0  0
   -5.0583    1.7378    0.7861 H   0  0  0  0  0  0  0  0  0  0  0  0
    0.2359   -1.6814    2.9603 C   0  0  0  0  0  0  0  0  0  0  0  0
   -1.0269   -1.8597    3.4950 C   0  0  0  0  0  0  0  0  0  0  0  0
    1.1261   -1.8051    3.9872 N   0  0  0  0  0  0  0  0  0  0  0  0
   -0.8905   -2.0403    4.8830 C   0  0  0  0  0  0  0  0  0  0  0  0
   -1.9571   -1.8535    2.9576 H   0  0  0  0  0  0  0  0  0  0  0  0
    0.4521   -2.0091    5.1508 C   0  0  0  0  0  0  0  0  0  0  0  0
    2.5592   -1.8476    3.8829 C   0  0  0  0  0  0  0  0  0  0  0  0
   -1.6844   -2.1786    5.5932 H   0  0  0  0  0  0  0  0  0  0  0  0
    0.9711   -2.1136    6.0845 H   0  0  0  0  0  0  0  0  0  0  0  0
    2.8914   -1.1784    3.0928 H   0  0  0  0  0  0  0  0  0  0  0  0
    2.8912   -2.8587    3.6347 H   0  0  0  0  0  0  0  0  0  0  0  0
    2.9978   -1.5574    4.8373 H   0  0  0  0  0  0  0  0  0  0  0  0
  1  2  4  0  0  0  0
  2  3  4  0  0  0  0
  3  4  4  0  0  0  0
  4  5  4  0  0  0  0
  1  6  4  0  0  0  0
  5  6  4  0  0  0  0
  6  7  1  0  0  0  0
  5  8  1  0  0  0  0
  3  9  1  0  0  0  0
  2 10  1  0  0  0  0
 10 11  4  0  0  0  0
 11 12  4  0  0  0  0
 12 13  4  0  0  0  0
 13 14  4  0  0  0  0
 10 15  4  0  0  0  0
 14 15  4  0  0  0  0
 15 16  1  0  0  0  0
 13 17  1  0  0  0  0
 12 18  1  0  0  0  0
  1 19  1  0  0  0  0
 11 19  1  0  0  0  0
 19 20  1  0  0  0  0
 19 21  1  0  0  0  0
 21 22  1  0  0  0  0
 22 23  1  0  0  0  0
 23 24  1  0  0  0  0
 24 25  1  0  0  0  0
 24 26  1  0  0  0  0
 24 27  1  0  0  0  0
 23 28  1  0  0  0  0
 28 29  1  0  0  0  0
 28 30  1  0  0  0  0
 28 31  1  0  0  0  0
 23 32  1  0  0  0  0
 21 33  1  0  0  0  0
 32 33  1  0  0  0  0
 32 34  1  0  0  0  0
 34 35  1  0  0  0  0
 34 36  1  0  0  0  0
 34 37  1  0  0  0  0
 32 38  1  0  0  0  0
 38 39  1  0  0  0  0
 38 40  1  0  0  0  0
 38 41  1  0  0  0  0
 19 42  1  0  0  0  0
 42 43  1  0  0  0  0
 43 44  1  0  0  0  0
 44 45  1  0  0  0  0
 45 46  1  0  0  0  0
 45 47  1  0  0  0  0
 45 48  1  0  0  0  0
 44 49  1  0  0  0  0
 49 50  1  0  0  0  0
 49 51  1  0  0  0  0
 49 52  1  0  0  0  0
 44 53  1  0  0  0  0
 42 54  1  0  0  0  0
 53 54  1  0  0  0  0
 53 55  1  0  0  0  0
 55 56  1  0  0  0  0
 55 57  1  0  0  0  0
 55 58  1  0  0  0  0
 53 59  1  0  0  0  0
 59 60  1  0  0  0  0
 59 61  1  0  0  0  0
 59 62  1  0  0  0  0
 19 63  1  0  0  0  0
 63 64  1  0  0  0  0
 64 65  1  0  0  0  0
 65 66  1  0  0  0  0
 66 67  1  0  0  0  0
 66 68  1  0  0  0  0
 66 69  1  0  0  0  0
 65 70  1  0  0  0  0
 70 71  1  0  0  0  0
 70 72  1  0  0  0  0
 70 73  1  0  0  0  0
 65 74  1  0  0  0  0
 63 75  1  0  0  0  0
 74 75  1  0  0  0  0
 74 76  1  0  0  0  0
 76 77  1  0  0  0  0
 76 78  1  0  0  0  0
 76 79  1  0  0  0  0
 74 80  1  0  0  0  0
 80 81  1  0  0  0  0
 80 82  1  0  0  0  0
 80 83  1  0  0  0  0
  4 84  1  0  0  0  0
 14 85  1  0  0  0  0
 19 86  1  0  0  0  0
 20 86  1  0  0  0  0
 86 87  4  0  0  0  0
 86 88  4  0  0  0  0
 87 89  4  0  0  0  0
 87 90  1  0  0  0  0
 88 91  4  0  0  0  0
 89 91  2  0  0  0  0
 88 92  1  0  0  0  0
 89 93  1  0  0  0  0
 91 94  1  0  0  0  0
 92 95  1  0  0  0  0
 92 96  1  0  0  0  0
 92 97  1  0  0  0  0
M  END
