
  xtb     01142213323D
 xtb: 6.4.1 (1a32961)
103110  0     0  0            999 V2000
   -0.9002   -1.9489   -0.4681 N   0  0  0  0  0  0  0  0  0  0  0  0
   -2.1428   -1.4595   -0.6191 C   0  0  0  0  0  0  0  0  0  0  0  0
   -3.0153   -1.9987   -1.5708 C   0  0  0  0  0  0  0  0  0  0  0  0
   -2.6002   -3.0414   -2.3707 C   0  0  0  0  0  0  0  0  0  0  0  0
   -1.3089   -3.5319   -2.2083 C   0  0  0  0  0  0  0  0  0  0  0  0
   -0.5075   -2.9519   -1.2466 C   0  0  0  0  0  0  0  0  0  0  0  0
    0.5012   -3.3028   -1.0794 H   0  0  0  0  0  0  0  0  0  0  0  0
   -0.9407   -4.3472   -2.8094 H   0  0  0  0  0  0  0  0  0  0  0  0
   -4.0148   -1.6133   -1.6802 H   0  0  0  0  0  0  0  0  0  0  0  0
   -2.5206   -0.3564    0.2599 C   0  0  0  0  0  0  0  0  0  0  0  0
   -1.5987    0.0457    1.1572 N   0  0  0  0  0  0  0  0  0  0  0  0
   -1.9105    1.0261    2.0018 C   0  0  0  0  0  0  0  0  0  0  0  0
   -3.1313    1.6700    2.0043 C   0  0  0  0  0  0  0  0  0  0  0  0
   -4.0849    1.2833    1.0685 C   0  0  0  0  0  0  0  0  0  0  0  0
   -3.7718    0.2651    0.1930 C   0  0  0  0  0  0  0  0  0  0  0  0
   -4.4998   -0.0473   -0.5362 H   0  0  0  0  0  0  0  0  0  0  0  0
   -3.3326    2.4520    2.7185 H   0  0  0  0  0  0  0  0  0  0  0  0
   -1.1295    1.3058    2.6928 H   0  0  0  0  0  0  0  0  0  0  0  0
    0.4215   -0.8165    0.9133 Ir  0  0  0  0  0  0  0  0  0  0  0  0
    0.8726   -2.2303    1.5405 H   0  0  0  0  0  0  0  0  0  0  0  0
    0.4304    0.6869   -0.5410 B   0  0  0  0  0  0  0  0  0  0  0  0
   -0.3284    0.5490   -1.6883 O   0  0  0  0  0  0  0  0  0  0  0  0
   -0.3868    1.7980   -2.3883 C   0  0  0  0  0  0  0  0  0  0  0  0
   -0.3064    1.5516   -3.8927 C   0  0  0  0  0  0  0  0  0  0  0  0
    0.5476    0.9287   -4.1369 H   0  0  0  0  0  0  0  0  0  0  0  0
   -0.2326    2.4980   -4.4223 H   0  0  0  0  0  0  0  0  0  0  0  0
   -1.2070    1.0366   -4.2179 H   0  0  0  0  0  0  0  0  0  0  0  0
   -1.7418    2.4367   -2.0517 C   0  0  0  0  0  0  0  0  0  0  0  0
   -1.8757    3.3748   -2.5818 H   0  0  0  0  0  0  0  0  0  0  0  0
   -2.5329    1.7483   -2.3420 H   0  0  0  0  0  0  0  0  0  0  0  0
   -1.8196    2.6051   -0.9794 H   0  0  0  0  0  0  0  0  0  0  0  0
    0.8194    2.5852   -1.7789 C   0  0  0  0  0  0  0  0  0  0  0  0
    1.0031    1.9353   -0.5123 O   0  0  0  0  0  0  0  0  0  0  0  0
    2.1155    2.3802   -2.5718 C   0  0  0  0  0  0  0  0  0  0  0  0
    2.3193    1.3153   -2.6534 H   0  0  0  0  0  0  0  0  0  0  0  0
    2.0539    2.8346   -3.5562 H   0  0  0  0  0  0  0  0  0  0  0  0
    2.9365    2.8343   -2.0219 H   0  0  0  0  0  0  0  0  0  0  0  0
    0.5774    4.0782   -1.5671 C   0  0  0  0  0  0  0  0  0  0  0  0
   -0.2194    4.2493   -0.8497 H   0  0  0  0  0  0  0  0  0  0  0  0
    1.4855    4.5353   -1.1812 H   0  0  0  0  0  0  0  0  0  0  0  0
    0.3229    4.5516   -2.5117 H   0  0  0  0  0  0  0  0  0  0  0  0
    1.5712    0.6346    1.8908 B   0  0  0  0  0  0  0  0  0  0  0  0
    2.9301    0.7795    1.8740 O   0  0  0  0  0  0  0  0  0  0  0  0
    3.3216    2.0135    2.4924 C   0  0  0  0  0  0  0  0  0  0  0  0
    4.4929    1.7507    3.4401 C   0  0  0  0  0  0  0  0  0  0  0  0
    4.2484    0.9798    4.1641 H   0  0  0  0  0  0  0  0  0  0  0  0
    5.3456    1.4072    2.8601 H   0  0  0  0  0  0  0  0  0  0  0  0
    4.7683    2.6639    3.9602 H   0  0  0  0  0  0  0  0  0  0  0  0
    3.7812    2.9378    1.3585 C   0  0  0  0  0  0  0  0  0  0  0  0
    4.0477    3.9228    1.7288 H   0  0  0  0  0  0  0  0  0  0  0  0
    4.6520    2.4937    0.8817 H   0  0  0  0  0  0  0  0  0  0  0  0
    2.9908    3.0084    0.6166 H   0  0  0  0  0  0  0  0  0  0  0  0
    2.0009    2.4961    3.1965 C   0  0  0  0  0  0  0  0  0  0  0  0
    0.9982    1.6288    2.6474 O   0  0  0  0  0  0  0  0  0  0  0  0
    1.6040    3.9412    2.8902 C   0  0  0  0  0  0  0  0  0  0  0  0
    1.4289    4.0677    1.8271 H   0  0  0  0  0  0  0  0  0  0  0  0
    0.6814    4.1718    3.4174 H   0  0  0  0  0  0  0  0  0  0  0  0
    2.3775    4.6272    3.2230 H   0  0  0  0  0  0  0  0  0  0  0  0
    2.0019    2.2929    4.7159 C   0  0  0  0  0  0  0  0  0  0  0  0
    2.2465    1.2650    4.9653 H   0  0  0  0  0  0  0  0  0  0  0  0
    2.7123    2.9605    5.1938 H   0  0  0  0  0  0  0  0  0  0  0  0
    1.0057    2.5065    5.0973 H   0  0  0  0  0  0  0  0  0  0  0  0
    2.2782   -1.3309    0.1741 B   0  0  0  0  0  0  0  0  0  0  0  0
    3.1753   -2.1868    0.7717 O   0  0  0  0  0  0  0  0  0  0  0  0
    4.4176   -2.1856    0.0541 C   0  0  0  0  0  0  0  0  0  0  0  0
    5.3845   -1.3055    0.8523 C   0  0  0  0  0  0  0  0  0  0  0  0
    4.9361   -0.3262    0.9900 H   0  0  0  0  0  0  0  0  0  0  0  0
    5.5224   -1.7484    1.8355 H   0  0  0  0  0  0  0  0  0  0  0  0
    6.3490   -1.2238    0.3607 H   0  0  0  0  0  0  0  0  0  0  0  0
    4.9664   -3.6107   -0.0133 C   0  0  0  0  0  0  0  0  0  0  0  0
    5.1959   -3.9445    0.9952 H   0  0  0  0  0  0  0  0  0  0  0  0
    5.8754   -3.6330   -0.6077 H   0  0  0  0  0  0  0  0  0  0  0  0
    4.2390   -4.2956   -0.4359 H   0  0  0  0  0  0  0  0  0  0  0  0
    4.0186   -1.5614   -1.3299 C   0  0  0  0  0  0  0  0  0  0  0  0
    2.7662   -0.9175   -1.0424 O   0  0  0  0  0  0  0  0  0  0  0  0
    4.9994   -0.5240   -1.8731 C   0  0  0  0  0  0  0  0  0  0  0  0
    5.9852   -0.9636   -1.9958 H   0  0  0  0  0  0  0  0  0  0  0  0
    4.6478   -0.1753   -2.8409 H   0  0  0  0  0  0  0  0  0  0  0  0
    5.0562    0.3289   -1.2057 H   0  0  0  0  0  0  0  0  0  0  0  0
    3.7483   -2.6129   -2.4143 C   0  0  0  0  0  0  0  0  0  0  0  0
    3.0277   -3.3442   -2.0589 H   0  0  0  0  0  0  0  0  0  0  0  0
    3.3217   -2.1155   -3.2818 H   0  0  0  0  0  0  0  0  0  0  0  0
    4.6655   -3.1137   -2.7083 H   0  0  0  0  0  0  0  0  0  0  0  0
   -3.2656   -3.4678   -3.1057 H   0  0  0  0  0  0  0  0  0  0  0  0
   -5.0491    1.7666    1.0274 H   0  0  0  0  0  0  0  0  0  0  0  0
    0.2359   -1.6814    2.9603 C   0  0  0  0  0  0  0  0  0  0  0  0
   -1.0168   -2.1219    3.4239 C   0  0  0  0  0  0  0  0  0  0  0  0
    1.2272   -1.4898    3.9232 C   0  0  0  0  0  0  0  0  0  0  0  0
   -1.2891   -2.2439    4.7968 C   0  0  0  0  0  0  0  0  0  0  0  0
   -2.0402   -2.5006    2.5353 C   0  0  0  0  0  0  0  0  0  0  0  0
    0.9672   -1.6187    5.2823 C   0  0  0  0  0  0  0  0  0  0  0  0
    2.2298   -1.2437    3.6079 H   0  0  0  0  0  0  0  0  0  0  0  0
   -0.3113   -1.9825    5.7256 C   0  0  0  0  0  0  0  0  0  0  0  0
   -2.2752   -2.5569    5.1094 H   0  0  0  0  0  0  0  0  0  0  0  0
   -2.8971   -2.8641    1.8587 N   0  0  0  0  0  0  0  0  0  0  0  0
    2.0721   -1.3777    6.2345 C   0  0  0  0  0  0  0  0  0  0  0  0
   -0.5109   -2.0702    6.7811 H   0  0  0  0  0  0  0  0  0  0  0  0
    3.1170   -0.8316    5.9463 O   0  0  0  0  0  0  0  0  0  0  0  0
    1.8099   -1.8294    7.4650 O   0  0  0  0  0  0  0  0  0  0  0  0
    2.8314   -1.6472    8.4434 C   0  0  0  0  0  0  0  0  0  0  0  0
    2.4540   -2.1038    9.3541 H   0  0  0  0  0  0  0  0  0  0  0  0
    3.0251   -0.5831    8.5915 H   0  0  0  0  0  0  0  0  0  0  0  0
    3.7538   -2.1319    8.1179 H   0  0  0  0  0  0  0  0  0  0  0  0
  1  2  4  0  0  0  0
  2  3  4  0  0  0  0
  3  4  4  0  0  0  0
  4  5  4  0  0  0  0
  1  6  4  0  0  0  0
  5  6  4  0  0  0  0
  6  7  1  0  0  0  0
  5  8  1  0  0  0  0
  3  9  1  0  0  0  0
  2 10  1  0  0  0  0
 10 11  4  0  0  0  0
 11 12  4  0  0  0  0
 12 13  4  0  0  0  0
 13 14  4  0  0  0  0
 10 15  4  0  0  0  0
 14 15  4  0  0  0  0
 15 16  1  0  0  0  0
 13 17  1  0  0  0  0
 12 18  1  0  0  0  0
  1 19  1  0  0  0  0
 11 19  1  0  0  0  0
 19 20  1  0  0  0  0
 19 21  1  0  0  0  0
 21 22  1  0  0  0  0
 22 23  1  0  0  0  0
 23 24  1  0  0  0  0
 24 25  1  0  0  0  0
 24 26  1  0  0  0  0
 24 27  1  0  0  0  0
 23 28  1  0  0  0  0
 28 29  1  0  0  0  0
 28 30  1  0  0  0  0
 28 31  1  0  0  0  0
 23 32  1  0  0  0  0
 21 33  1  0  0  0  0
 32 33  1  0  0  0  0
 32 34  1  0  0  0  0
 34 35  1  0  0  0  0
 34 36  1  0  0  0  0
 34 37  1  0  0  0  0
 32 38  1  0  0  0  0
 38 39  1  0  0  0  0
 38 40  1  0  0  0  0
 38 41  1  0  0  0  0
 19 42  1  0  0  0  0
 42 43  1  0  0  0  0
 43 44  1  0  0  0  0
 44 45  1  0  0  0  0
 45 46  1  0  0  0  0
 45 47  1  0  0  0  0
 45 48  1  0  0  0  0
 44 49  1  0  0  0  0
 49 50  1  0  0  0  0
 49 51  1  0  0  0  0
 49 52  1  0  0  0  0
 44 53  1  0  0  0  0
 42 54  1  0  0  0  0
 53 54  1  0  0  0  0
 53 55  1  0  0  0  0
 55 56  1  0  0  0  0
 55 57  1  0  0  0  0
 55 58  1  0  0  0  0
 53 59  1  0  0  0  0
 59 60  1  0  0  0  0
 59 61  1  0  0  0  0
 59 62  1  0  0  0  0
 19 63  1  0  0  0  0
 63 64  1  0  0  0  0
 64 65  1  0  0  0  0
 65 66  1  0  0  0  0
 66 67  1  0  0  0  0
 66 68  1  0  0  0  0
 66 69  1  0  0  0  0
 65 70  1  0  0  0  0
 70 71  1  0  0  0  0
 70 72  1  0  0  0  0
 70 73  1  0  0  0  0
 65 74  1  0  0  0  0
 63 75  1  0  0  0  0
 74 75  1  0  0  0  0
 74 76  1  0  0  0  0
 76 77  1  0  0  0  0
 76 78  1  0  0  0  0
 76 79  1  0  0  0  0
 74 80  1  0  0  0  0
 80 81  1  0  0  0  0
 80 82  1  0  0  0  0
 80 83  1  0  0  0  0
  4 84  1  0  0  0  0
 14 85  1  0  0  0  0
 19 86  1  0  0  0  0
 20 86  1  0  0  0  0
 86 87  4  0  0  0  0
 86 88  4  0  0  0  0
 87 89  4  0  0  0  0
 87 90  1  0  0  0  0
 88 91  4  0  0  0  0
 88 92  1  0  0  0  0
 89 93  4  0  0  0  0
 91 93  4  0  0  0  0
 89 94  1  0  0  0  0
 90 95  3  0  0  0  0
 91 96  1  0  0  0  0
 93 97  1  0  0  0  0
 96 98  2  0  0  0  0
 96 99  1  0  0  0  0
 99100  1  0  0  0  0
100101  1  0  0  0  0
100102  1  0  0  0  0
100103  1  0  0  0  0
M  END
