
  xtb     01142215093D
 xtb: 6.4.1 (1a32961)
 53 53  0     0  0            999 V2000
   -0.9475    4.0308    0.1675 N   0  0  0  0  0  0  0  0  0  0  0  0
   -0.8267    3.9453    1.5974 C   0  0  0  0  0  0  0  0  0  0  0  0
   -1.8364    4.8105   -0.4994 C   0  0  0  0  0  0  0  0  0  0  0  0
   -1.6890    4.5994   -1.8443 C   0  0  0  0  0  0  0  0  0  0  0  0
   -0.6736    3.6392   -2.0007 C   0  0  0  0  0  0  0  0  0  0  0  0
   -0.2212    3.3152   -0.7412 C   0  0  0  0  0  0  0  0  0  0  0  0
    0.7884    2.2899   -0.3632 C   0  0  0  0  0  0  0  0  0  0  0  0
    0.5264    1.0954   -0.4959 O   0  0  0  0  0  0  0  0  0  0  0  0
    1.9694    2.7235    0.1233 N   0  0  0  0  0  0  0  0  0  0  0  0
    2.9643    1.7364    0.5107 C   0  0  0  0  0  0  0  0  0  0  0  0
    3.4708    1.8991    1.9448 C   0  0  0  0  0  0  0  0  0  0  0  0
    2.3438    1.8235    2.9733 C   0  0  0  0  0  0  0  0  0  0  0  0
    2.8455    1.6479    4.4081 C   0  0  0  0  0  0  0  0  0  0  0  0
    3.7123    2.7942    4.9346 C   0  0  0  0  0  0  0  0  0  0  0  0
    2.9698    4.1231    5.0255 C   0  0  0  0  0  0  0  0  0  0  0  0
    2.3473    4.1222    0.1622 C   0  0  0  0  0  0  0  0  0  0  0  0
    3.5555    4.4547   -0.7217 C   0  0  0  0  0  0  0  0  0  0  0  0
    3.3184    4.1660   -2.2048 C   0  0  0  0  0  0  0  0  0  0  0  0
    2.4272    5.2052   -2.8823 C   0  0  0  0  0  0  0  0  0  0  0  0
    2.2571    4.9227   -4.3734 C   0  0  0  0  0  0  0  0  0  0  0  0
    1.3192    5.9257   -5.0352 C   0  0  0  0  0  0  0  0  0  0  0  0
   -1.7974    4.1302    2.0556 H   0  0  0  0  0  0  0  0  0  0  0  0
   -0.1140    4.6840    1.9745 H   0  0  0  0  0  0  0  0  0  0  0  0
   -0.4882    2.9477    1.8748 H   0  0  0  0  0  0  0  0  0  0  0  0
   -2.5131    5.4528    0.0289 H   0  0  0  0  0  0  0  0  0  0  0  0
   -2.2459    5.0701   -2.6306 H   0  0  0  0  0  0  0  0  0  0  0  0
   -0.3072    3.2324   -2.9227 H   0  0  0  0  0  0  0  0  0  0  0  0
    3.8084    1.7760   -0.1849 H   0  0  0  0  0  0  0  0  0  0  0  0
    2.4830    0.7614    0.4001 H   0  0  0  0  0  0  0  0  0  0  0  0
    4.0095    2.8417    2.0439 H   0  0  0  0  0  0  0  0  0  0  0  0
    4.1810    1.0905    2.1292 H   0  0  0  0  0  0  0  0  0  0  0  0
    1.7052    0.9707    2.7276 H   0  0  0  0  0  0  0  0  0  0  0  0
    1.7264    2.7201    2.9097 H   0  0  0  0  0  0  0  0  0  0  0  0
    3.4233    0.7219    4.4651 H   0  0  0  0  0  0  0  0  0  0  0  0
    1.9794    1.5343    5.0651 H   0  0  0  0  0  0  0  0  0  0  0  0
    4.5943    2.9102    4.3026 H   0  0  0  0  0  0  0  0  0  0  0  0
    4.0629    2.5202    5.9328 H   0  0  0  0  0  0  0  0  0  0  0  0
    2.6849    4.4813    4.0397 H   0  0  0  0  0  0  0  0  0  0  0  0
    3.6030    4.8772    5.4880 H   0  0  0  0  0  0  0  0  0  0  0  0
    2.0696    4.0153    5.6271 H   0  0  0  0  0  0  0  0  0  0  0  0
    2.5798    4.3979    1.1956 H   0  0  0  0  0  0  0  0  0  0  0  0
    1.4950    4.7130   -0.1704 H   0  0  0  0  0  0  0  0  0  0  0  0
    4.4242    3.8926   -0.3769 H   0  0  0  0  0  0  0  0  0  0  0  0
    3.7791    5.5151   -0.5909 H   0  0  0  0  0  0  0  0  0  0  0  0
    2.8660    3.1772   -2.3151 H   0  0  0  0  0  0  0  0  0  0  0  0
    4.2828    4.1448   -2.7181 H   0  0  0  0  0  0  0  0  0  0  0  0
    2.8656    6.1980   -2.7536 H   0  0  0  0  0  0  0  0  0  0  0  0
    1.4411    5.2097   -2.4144 H   0  0  0  0  0  0  0  0  0  0  0  0
    1.8583    3.9135   -4.5040 H   0  0  0  0  0  0  0  0  0  0  0  0
    3.2328    4.9561   -4.8651 H   0  0  0  0  0  0  0  0  0  0  0  0
    0.3357    5.8851   -4.5717 H   0  0  0  0  0  0  0  0  0  0  0  0
    1.2099    5.7076   -6.0952 H   0  0  0  0  0  0  0  0  0  0  0  0
    1.7060    6.9372   -4.9299 H   0  0  0  0  0  0  0  0  0  0  0  0
  1  2  1  0  0  0  0
  1  3  4  0  0  0  0
  3  4  2  0  0  0  0
  4  5  4  0  0  0  0
  1  6  4  0  0  0  0
  5  6  4  0  0  0  0
  6  7  1  0  0  0  0
  7  8  2  0  0  0  0
  7  9  4  0  0  0  0
  9 10  1  0  0  0  0
 10 11  1  0  0  0  0
 11 12  1  0  0  0  0
 12 13  1  0  0  0  0
 13 14  1  0  0  0  0
 14 15  1  0  0  0  0
  9 16  1  0  0  0  0
 16 17  1  0  0  0  0
 17 18  1  0  0  0  0
 18 19  1  0  0  0  0
 19 20  1  0  0  0  0
 20 21  1  0  0  0  0
  2 22  1  0  0  0  0
  2 23  1  0  0  0  0
  2 24  1  0  0  0  0
  3 25  1  0  0  0  0
  4 26  1  0  0  0  0
  5 27  1  0  0  0  0
 10 28  1  0  0  0  0
 10 29  1  0  0  0  0
 11 30  1  0  0  0  0
 11 31  1  0  0  0  0
 12 32  1  0  0  0  0
 12 33  1  0  0  0  0
 13 34  1  0  0  0  0
 13 35  1  0  0  0  0
 14 36  1  0  0  0  0
 14 37  1  0  0  0  0
 15 38  1  0  0  0  0
 15 39  1  0  0  0  0
 15 40  1  0  0  0  0
 16 41  1  0  0  0  0
 16 42  1  0  0  0  0
 17 43  1  0  0  0  0
 17 44  1  0  0  0  0
 18 45  1  0  0  0  0
 18 46  1  0  0  0  0
 19 47  1  0  0  0  0
 19 48  1  0  0  0  0
 20 49  1  0  0  0  0
 20 50  1  0  0  0  0
 21 51  1  0  0  0  0
 21 52  1  0  0  0  0
 21 53  1  0  0  0  0
M  END
