  118
Created with kallisto
N     -0.9651   -2.1153   -0.2409
C     -2.2470   -1.6984   -0.3622
C     -3.1404   -2.3682   -1.2120
C     -2.7022   -3.4756   -1.9305
C     -1.3778   -3.8988   -1.7876
C     -0.5429   -3.1867   -0.9351
H      0.4981   -3.4563   -0.7894
H     -0.9957   -4.7603   -2.3277
H     -4.1650   -2.0289   -1.3183
C     -2.6213   -0.5095    0.4410
N     -1.6260    0.0733    1.1602
C     -1.8968    1.1524    1.9169
C     -3.1723    1.7033    1.9965
C     -4.2051    1.1174    1.2627
C     -3.9261    0.0025    0.4782
H     -4.7196   -0.4642   -0.0952
H     -3.3463    2.5751    2.6207
H     -1.0445    1.5742    2.4369
Ir     0.4215   -0.8165    0.9133
H      0.8726   -2.2303    1.5405
B      0.5067    0.4156   -0.8154
O      0.1950   -0.0470   -2.0915
C      0.0065    1.1004   -2.9543
C      0.4902    0.7474   -4.3578
H      1.5161    0.3738   -4.3370
H      0.4473    1.6224   -5.0167
H     -0.1474   -0.0339   -4.7843
C     -1.5012    1.3956   -2.9667
H     -1.7537    2.2146   -3.6485
H     -2.0320    0.4945   -3.2893
H     -1.8517    1.6521   -1.9622
C      0.8423    2.2067   -2.2204
O      0.7520    1.7826   -0.8369
C      2.3293    2.1862   -2.5990
H      2.7413    1.1850   -2.4575
H      2.4887    2.5130   -3.6318
H      2.8720    2.8627   -1.9320
C      0.2844    3.6229   -2.3366
H     -0.7265    3.6904   -1.9291
H      0.9213    4.3148   -1.7761
H      0.2643    3.9481   -3.3832
B      1.5630    0.6096    1.8484
O      2.9278    0.5523    2.1502
C      3.3633    1.8866    2.5026
C      4.5314    1.7859    3.4774
H      4.2791    1.1609    4.3369
H      5.3939    1.3379    2.9734
H      4.8239    2.7787    3.8382
C      3.7970    2.5685    1.1967
H      4.2002    3.5709    1.3768
H      4.5674    1.9556    0.7211
H      2.9524    2.6326    0.5054
C      2.0504    2.5009    3.0932
O      1.0375    1.8162    2.3191
C      1.8910    4.0045    2.8865
H      1.8729    4.2544    1.8241
H      0.9494    4.3426    3.3317
H      2.7108    4.5515    3.3663
C      1.8247    2.1320    4.5652
H      1.9261    1.0533    4.7132
H      2.5261    2.6528    5.2254
H      0.8063    2.4158    4.8490
B      2.2782   -1.3309    0.1741
O      2.8946   -2.5774    0.3845
C      4.2693   -2.4820   -0.0721
C      5.1090   -2.0538    1.1401
H      4.7635   -1.0874    1.5175
H      4.9805   -2.7947    1.9359
H      6.1742   -1.9929    0.8930
C      4.7195   -3.8466   -0.5847
H      4.7528   -4.5613    0.2442
H      5.7233   -3.7837   -1.0201
H      4.0350   -4.2360   -1.3417
C      4.1644   -1.3622   -1.1630
O      3.0852   -0.5503   -0.6540
C      5.4072   -0.4887   -1.3155
H      6.2732   -1.0901   -1.6153
H      5.2330    0.2693   -2.0859
H      5.6427    0.0265   -0.3824
C      3.7180   -1.8983   -2.5311
H      2.8253   -2.5216   -2.4274
H      3.4609   -1.0525   -3.1755
H      4.5057   -2.4829   -3.0179
H     -3.3850   -4.0013   -2.5931
H     -5.2140    1.5208    1.2996
C      0.2359   -1.6814    2.9603
C     -1.0276   -2.0786    3.3995
C      1.3823   -1.8201    3.7884
C     -1.1923   -2.6217    4.6683
H     -1.8842   -1.9627    2.7477
C      1.1896   -2.3876    5.0846
N      2.6428   -1.4317    3.3526
C     -0.0925   -2.7763    5.5078
H     -2.1758   -2.9258    5.0022
C      2.2721   -2.5735    5.9491
B      3.8067   -1.5852    4.2570
C      2.8038   -0.9314    1.9735
H     -0.2439   -3.2053    6.4914
C      3.5569   -2.2036    5.5882
H      2.1194   -3.0069    6.9310
C      5.3058   -1.1065    3.9382
H      3.8479   -0.8481    1.6396
H      2.2842    0.0438    1.8545
H      2.3870   -1.6703    1.2568
H      4.3574   -2.3435    6.3014
C      6.3968   -1.8150    4.4800
C      5.5762    0.0420    3.1695
C      7.7115   -1.4094    4.2304
H      6.2446   -2.6993    5.0854
C      6.8880    0.4463    2.9209
H      4.7832    0.6616    2.7772
C      7.9682   -0.2751    3.4435
H      8.5226   -1.9871    4.6547
H      7.0606    1.3343    2.3253
C      9.3710    0.1943    3.1570
F     10.3162   -0.6135    3.7648
F      9.5901    0.1813    1.7914
F      9.5266    1.4860    3.6268
