
  xtb     01142215193D
 xtb: 6.4.1 (1a32961)
118127  0     0  0            999 V2000
   -0.9186   -2.1697   -0.3464 N   0  0  0  0  0  0  0  0  0  0  0  0
   -2.2039   -1.8021   -0.4683 C   0  0  0  0  0  0  0  0  0  0  0  0
   -3.0508   -2.4309   -1.3888 C   0  0  0  0  0  0  0  0  0  0  0  0
   -2.5687   -3.4573   -2.1732 C   0  0  0  0  0  0  0  0  0  0  0  0
   -1.2405   -3.8383   -2.0231 C   0  0  0  0  0  0  0  0  0  0  0  0
   -0.4626   -3.1598   -1.1042 C   0  0  0  0  0  0  0  0  0  0  0  0
    0.5782   -3.4094   -0.9622 H   0  0  0  0  0  0  0  0  0  0  0  0
   -0.8208   -4.6393   -2.6096 H   0  0  0  0  0  0  0  0  0  0  0  0
   -4.0749   -2.1149   -1.5011 H   0  0  0  0  0  0  0  0  0  0  0  0
   -2.6647   -0.7215    0.4017 C   0  0  0  0  0  0  0  0  0  0  0  0
   -1.7303   -0.1031    1.1457 N   0  0  0  0  0  0  0  0  0  0  0  0
   -2.1076    0.8813    1.9527 C   0  0  0  0  0  0  0  0  0  0  0  0
   -3.4164    1.3058    2.0809 C   0  0  0  0  0  0  0  0  0  0  0  0
   -4.3962    0.6678    1.3285 C   0  0  0  0  0  0  0  0  0  0  0  0
   -4.0131   -0.3510    0.4816 C   0  0  0  0  0  0  0  0  0  0  0  0
   -4.7606   -0.8624   -0.1016 H   0  0  0  0  0  0  0  0  0  0  0  0
   -3.6656    2.1041    2.7610 H   0  0  0  0  0  0  0  0  0  0  0  0
   -1.3121    1.3457    2.5128 H   0  0  0  0  0  0  0  0  0  0  0  0
    0.4215   -0.8165    0.9133 Ir  0  0  0  0  0  0  0  0  0  0  0  0
    0.8726   -2.2303    1.5405 H   0  0  0  0  0  0  0  0  0  0  0  0
    0.2644    0.5487   -0.6493 B   0  0  0  0  0  0  0  0  0  0  0  0
   -0.2968    0.1666   -1.8609 O   0  0  0  0  0  0  0  0  0  0  0  0
   -0.7459    1.3152   -2.5848 C   0  0  0  0  0  0  0  0  0  0  0  0
   -0.4152    1.1475   -4.0674 C   0  0  0  0  0  0  0  0  0  0  0  0
    0.6404    0.9419   -4.2131 H   0  0  0  0  0  0  0  0  0  0  0  0
   -0.6900    2.0444   -4.6163 H   0  0  0  0  0  0  0  0  0  0  0  0
   -0.9815    0.3073   -4.4626 H   0  0  0  0  0  0  0  0  0  0  0  0
   -2.2727    1.3787   -2.4265 C   0  0  0  0  0  0  0  0  0  0  0  0
   -2.6926    2.2095   -2.9857 H   0  0  0  0  0  0  0  0  0  0  0  0
   -2.6990    0.4491   -2.7993 H   0  0  0  0  0  0  0  0  0  0  0  0
   -2.5404    1.4739   -1.3767 H   0  0  0  0  0  0  0  0  0  0  0  0
   -0.0065    2.4972   -1.8663 C   0  0  0  0  0  0  0  0  0  0  0  0
    0.3899    1.9164   -0.6201 O   0  0  0  0  0  0  0  0  0  0  0  0
    1.2697    2.9387   -2.5940 C   0  0  0  0  0  0  0  0  0  0  0  0
    1.9284    2.0870   -2.7397 H   0  0  0  0  0  0  0  0  0  0  0  0
    1.0361    3.3962   -3.5510 H   0  0  0  0  0  0  0  0  0  0  0  0
    1.7916    3.6643   -1.9744 H   0  0  0  0  0  0  0  0  0  0  0  0
   -0.8727    3.7281   -1.5950 C   0  0  0  0  0  0  0  0  0  0  0  0
   -1.6926    3.4901   -0.9242 H   0  0  0  0  0  0  0  0  0  0  0  0
   -0.2623    4.4918   -1.1191 H   0  0  0  0  0  0  0  0  0  0  0  0
   -1.2669    4.1256   -2.5265 H   0  0  0  0  0  0  0  0  0  0  0  0
    1.3929    0.7491    1.8975 B   0  0  0  0  0  0  0  0  0  0  0  0
    2.7297    0.9839    2.1062 O   0  0  0  0  0  0  0  0  0  0  0  0
    2.9256    2.3690    2.4182 C   0  0  0  0  0  0  0  0  0  0  0  0
    4.0553    2.5435    3.4300 C   0  0  0  0  0  0  0  0  0  0  0  0
    3.9101    1.9026    4.2930 H   0  0  0  0  0  0  0  0  0  0  0  0
    4.9997    2.2764    2.9644 H   0  0  0  0  0  0  0  0  0  0  0  0
    4.1059    3.5815    3.7485 H   0  0  0  0  0  0  0  0  0  0  0  0
    3.3079    3.0489    1.0980 C   0  0  0  0  0  0  0  0  0  0  0  0
    3.5058    4.1082    1.2332 H   0  0  0  0  0  0  0  0  0  0  0  0
    4.2001    2.5621    0.7131 H   0  0  0  0  0  0  0  0  0  0  0  0
    2.5091    2.8945    0.3776 H   0  0  0  0  0  0  0  0  0  0  0  0
    1.5153    2.8087    2.9357 C   0  0  0  0  0  0  0  0  0  0  0  0
    0.6571    1.8061    2.3816 O   0  0  0  0  0  0  0  0  0  0  0  0
    1.0549    4.1825    2.4503 C   0  0  0  0  0  0  0  0  0  0  0  0
    0.9161    4.1719    1.3745 H   0  0  0  0  0  0  0  0  0  0  0  0
    0.1024    4.4270    2.9144 H   0  0  0  0  0  0  0  0  0  0  0  0
    1.7821    4.9426    2.7221 H   0  0  0  0  0  0  0  0  0  0  0  0
    1.3835    2.7380    4.4616 C   0  0  0  0  0  0  0  0  0  0  0  0
    1.7019    1.7639    4.8219 H   0  0  0  0  0  0  0  0  0  0  0  0
    1.9710    3.5168    4.9384 H   0  0  0  0  0  0  0  0  0  0  0  0
    0.3376    2.8728    4.7291 H   0  0  0  0  0  0  0  0  0  0  0  0
    2.2782   -1.3309    0.1741 B   0  0  0  0  0  0  0  0  0  0  0  0
    2.4778   -2.5856   -0.3893 O   0  0  0  0  0  0  0  0  0  0  0  0
    3.7160   -2.6401   -1.1064 C   0  0  0  0  0  0  0  0  0  0  0  0
    4.6794   -3.5276   -0.3086 C   0  0  0  0  0  0  0  0  0  0  0  0
    4.8631   -3.1074    0.6752 H   0  0  0  0  0  0  0  0  0  0  0  0
    4.2217   -4.5051   -0.1785 H   0  0  0  0  0  0  0  0  0  0  0  0
    5.6198   -3.6461   -0.8376 H   0  0  0  0  0  0  0  0  0  0  0  0
    3.4683   -3.2863   -2.4707 C   0  0  0  0  0  0  0  0  0  0  0  0
    3.1841   -4.3249   -2.3212 H   0  0  0  0  0  0  0  0  0  0  0  0
    4.3716   -3.2552   -3.0729 H   0  0  0  0  0  0  0  0  0  0  0  0
    2.6621   -2.7853   -2.9965 H   0  0  0  0  0  0  0  0  0  0  0  0
    4.1510   -1.1329   -1.1594 C   0  0  0  0  0  0  0  0  0  0  0  0
    3.3421   -0.5229   -0.1484 O   0  0  0  0  0  0  0  0  0  0  0  0
    5.6276   -0.8765   -0.8646 C   0  0  0  0  0  0  0  0  0  0  0  0
    6.2496   -1.3680   -1.6077 H   0  0  0  0  0  0  0  0  0  0  0  0
    5.8105    0.1939   -0.9053 H   0  0  0  0  0  0  0  0  0  0  0  0
    5.8962   -1.2293    0.1250 H   0  0  0  0  0  0  0  0  0  0  0  0
    3.7775   -0.4470   -2.4812 C   0  0  0  0  0  0  0  0  0  0  0  0
    2.7088   -0.5500   -2.6554 H   0  0  0  0  0  0  0  0  0  0  0  0
    4.0031    0.6128   -2.3892 H   0  0  0  0  0  0  0  0  0  0  0  0
    4.3364   -0.8566   -3.3171 H   0  0  0  0  0  0  0  0  0  0  0  0
   -3.2118   -3.9490   -2.8879 H   0  0  0  0  0  0  0  0  0  0  0  0
   -5.4336    0.9568    1.4060 H   0  0  0  0  0  0  0  0  0  0  0  0
    0.2359   -1.6814    2.9603 C   0  0  0  0  0  0  0  0  0  0  0  0
   -1.0895   -1.9310    3.2641 C   0  0  0  0  0  0  0  0  0  0  0  0
    1.1300   -1.4073    4.0300 C   0  0  0  0  0  0  0  0  0  0  0  0
   -1.6063   -1.6936    4.5390 C   0  0  0  0  0  0  0  0  0  0  0  0
   -1.7628   -2.2996    2.5031 H   0  0  0  0  0  0  0  0  0  0  0  0
    0.5817   -1.0066    5.2768 C   0  0  0  0  0  0  0  0  0  0  0  0
    2.4994   -1.5291    3.9403 N   0  0  0  0  0  0  0  0  0  0  0  0
   -0.7956   -1.1558    5.5049 C   0  0  0  0  0  0  0  0  0  0  0  0
   -2.6507   -1.8862    4.7402 H   0  0  0  0  0  0  0  0  0  0  0  0
    1.4243   -0.4699    6.2970 C   0  0  0  0  0  0  0  0  0  0  0  0
    3.3772   -0.8930    4.8449 B   0  0  0  0  0  0  0  0  0  0  0  0
    3.0443   -2.4299    2.9454 C   0  0  0  0  0  0  0  0  0  0  0  0
   -1.1981   -0.8689    6.4661 H   0  0  0  0  0  0  0  0  0  0  0  0
    2.7547   -0.3038    6.1043 C   0  0  0  0  0  0  0  0  0  0  0  0
    0.9418   -0.1774    7.2229 H   0  0  0  0  0  0  0  0  0  0  0  0
    4.9353   -0.9019    4.5690 C   0  0  0  0  0  0  0  0  0  0  0  0
    3.9961   -2.8103    3.3101 H   0  0  0  0  0  0  0  0  0  0  0  0
    3.1974   -1.9160    2.0003 H   0  0  0  0  0  0  0  0  0  0  0  0
    2.3682   -3.2689    2.7859 H   0  0  0  0  0  0  0  0  0  0  0  0
    3.3318    0.1648    6.8919 H   0  0  0  0  0  0  0  0  0  0  0  0
    5.8710   -1.2514    5.5428 C   0  0  0  0  0  0  0  0  0  0  0  0
    5.4200   -0.5079    3.3159 C   0  0  0  0  0  0  0  0  0  0  0  0
    7.2318   -1.2343    5.2883 C   0  0  0  0  0  0  0  0  0  0  0  0
    5.5288   -1.5545    6.5208 H   0  0  0  0  0  0  0  0  0  0  0  0
    6.7738   -0.4727    3.0480 C   0  0  0  0  0  0  0  0  0  0  0  0
    4.7155   -0.2111    2.5535 H   0  0  0  0  0  0  0  0  0  0  0  0
    7.6826   -0.8466    4.0340 C   0  0  0  0  0  0  0  0  0  0  0  0
    7.9406   -1.5183    6.0516 H   0  0  0  0  0  0  0  0  0  0  0  0
    7.1406   -0.1625    2.0805 H   0  0  0  0  0  0  0  0  0  0  0  0
    9.1411   -0.8008    3.7116 C   0  0  0  0  0  0  0  0  0  0  0  0
    9.9344   -1.3192    4.6660 F   0  0  0  0  0  0  0  0  0  0  0  0
    9.4499   -1.4694    2.5767 F   0  0  0  0  0  0  0  0  0  0  0  0
    9.5951    0.4602    3.5081 F   0  0  0  0  0  0  0  0  0  0  0  0
  1  2  4  0  0  0  0
  2  3  4  0  0  0  0
  3  4  4  0  0  0  0
  4  5  4  0  0  0  0
  1  6  4  0  0  0  0
  5  6  4  0  0  0  0
  6  7  1  0  0  0  0
  5  8  1  0  0  0  0
  3  9  1  0  0  0  0
  2 10  1  0  0  0  0
 10 11  4  0  0  0  0
 11 12  4  0  0  0  0
 12 13  4  0  0  0  0
 13 14  4  0  0  0  0
 10 15  4  0  0  0  0
 14 15  4  0  0  0  0
 15 16  1  0  0  0  0
 13 17  1  0  0  0  0
 12 18  1  0  0  0  0
  1 19  1  0  0  0  0
 11 19  1  0  0  0  0
 19 20  1  0  0  0  0
 19 21  1  0  0  0  0
 21 22  1  0  0  0  0
 22 23  1  0  0  0  0
 23 24  1  0  0  0  0
 24 25  1  0  0  0  0
 24 26  1  0  0  0  0
 24 27  1  0  0  0  0
 23 28  1  0  0  0  0
 28 29  1  0  0  0  0
 28 30  1  0  0  0  0
 28 31  1  0  0  0  0
 23 32  1  0  0  0  0
 21 33  1  0  0  0  0
 32 33  1  0  0  0  0
 32 34  1  0  0  0  0
 34 35  1  0  0  0  0
 34 36  1  0  0  0  0
 34 37  1  0  0  0  0
 32 38  1  0  0  0  0
 38 39  1  0  0  0  0
 38 40  1  0  0  0  0
 38 41  1  0  0  0  0
 19 42  1  0  0  0  0
 42 43  1  0  0  0  0
 43 44  1  0  0  0  0
 44 45  1  0  0  0  0
 45 46  1  0  0  0  0
 45 47  1  0  0  0  0
 45 48  1  0  0  0  0
 44 49  1  0  0  0  0
 49 50  1  0  0  0  0
 49 51  1  0  0  0  0
 49 52  1  0  0  0  0
 44 53  1  0  0  0  0
 42 54  1  0  0  0  0
 53 54  1  0  0  0  0
 53 55  1  0  0  0  0
 55 56  1  0  0  0  0
 55 57  1  0  0  0  0
 55 58  1  0  0  0  0
 53 59  1  0  0  0  0
 59 60  1  0  0  0  0
 59 61  1  0  0  0  0
 59 62  1  0  0  0  0
 19 63  1  0  0  0  0
 63 64  1  0  0  0  0
 64 65  1  0  0  0  0
 65 66  1  0  0  0  0
 66 67  1  0  0  0  0
 66 68  1  0  0  0  0
 66 69  1  0  0  0  0
 65 70  1  0  0  0  0
 70 71  1  0  0  0  0
 70 72  1  0  0  0  0
 70 73  1  0  0  0  0
 65 74  1  0  0  0  0
 63 75  1  0  0  0  0
 74 75  1  0  0  0  0
 74 76  1  0  0  0  0
 76 77  1  0  0  0  0
 76 78  1  0  0  0  0
 76 79  1  0  0  0  0
 74 80  1  0  0  0  0
 80 81  1  0  0  0  0
 80 82  1  0  0  0  0
 80 83  1  0  0  0  0
  4 84  1  0  0  0  0
 14 85  1  0  0  0  0
 19 86  1  0  0  0  0
 20 86  1  0  0  0  0
 86 87  4  0  0  0  0
 86 88  4  0  0  0  0
 87 89  4  0  0  0  0
 87 90  1  0  0  0  0
 88 91  4  0  0  0  0
 88 92  1  0  0  0  0
 89 93  2  0  0  0  0
 91 93  4  0  0  0  0
 89 94  1  0  0  0  0
 91 95  4  0  0  0  0
 92 96  1  0  0  0  0
 92 97  1  0  0  0  0
 93 98  1  0  0  0  0
 95 99  2  0  0  0  0
 96 99  1  0  0  0  0
 95100  1  0  0  0  0
 96101  1  0  0  0  0
 97102  1  0  0  0  0
 97103  1  0  0  0  0
 97104  1  0  0  0  0
 99105  1  0  0  0  0
101106  4  0  0  0  0
101107  4  0  0  0  0
106108  4  0  0  0  0
106109  1  0  0  0  0
107110  4  0  0  0  0
107111  1  0  0  0  0
108112  4  0  0  0  0
110112  4  0  0  0  0
108113  1  0  0  0  0
110114  1  0  0  0  0
112115  1  0  0  0  0
115116  1  0  0  0  0
115117  1  0  0  0  0
115118  1  0  0  0  0
M  END
