   18
Created with kallisto
C     -2.0933    1.2036   -0.0012
C     -2.5604   -0.1066   -0.0154
C     -0.7221    1.4795    0.0053
C     -1.6642   -1.1800   -0.0184
H     -3.6299   -0.3000   -0.0233
C      0.1730    0.3964   -0.0036
H     -0.3752    2.5071    0.0158
C     -0.2778   -0.9283   -0.0103
H     -2.0355   -2.2005   -0.0278
N      1.5516    0.3465   -0.0109
C      0.8692   -1.7673   -0.0081
C      2.4535    1.4766   -0.0370
C      1.9803   -0.9566   -0.0056
H      0.8771   -2.8492   -0.0092
H      1.8964    2.4140   -0.0039
H      3.0350    1.4263   -0.9612
H      3.1122    1.4101    0.8327
H      3.0345   -1.2009   -0.0061
