
  xtb     01142214403D
 xtb: 6.4.1 (1a32961)
125134  0     0  0            999 V2000
   -0.7647   -2.0379   -0.5192 N   0  0  0  0  0  0  0  0  0  0  0  0
   -2.0076   -1.5887   -0.7778 C   0  0  0  0  0  0  0  0  0  0  0  0
   -2.7516   -2.1058   -1.8462 C   0  0  0  0  0  0  0  0  0  0  0  0
   -2.2186   -3.0961   -2.6410 C   0  0  0  0  0  0  0  0  0  0  0  0
   -0.9388   -3.5620   -2.3516 C   0  0  0  0  0  0  0  0  0  0  0  0
   -0.2625   -2.9988   -1.2902 C   0  0  0  0  0  0  0  0  0  0  0  0
    0.7354   -3.3251   -1.0391 H   0  0  0  0  0  0  0  0  0  0  0  0
   -0.4829   -4.3414   -2.9404 H   0  0  0  0  0  0  0  0  0  0  0  0
   -3.7384   -1.7307   -2.0612 H   0  0  0  0  0  0  0  0  0  0  0  0
   -2.5186   -0.5465    0.1034 C   0  0  0  0  0  0  0  0  0  0  0  0
   -1.6762   -0.0817    1.0499 N   0  0  0  0  0  0  0  0  0  0  0  0
   -2.1196    0.8480    1.8924 C   0  0  0  0  0  0  0  0  0  0  0  0
   -3.3905    1.3833    1.8445 C   0  0  0  0  0  0  0  0  0  0  0  0
   -4.2650    0.9275    0.8622 C   0  0  0  0  0  0  0  0  0  0  0  0
   -3.8220   -0.0452   -0.0071 C   0  0  0  0  0  0  0  0  0  0  0  0
   -4.4903   -0.4198   -0.7646 H   0  0  0  0  0  0  0  0  0  0  0  0
   -3.6950    2.1314    2.5587 H   0  0  0  0  0  0  0  0  0  0  0  0
   -1.4076    1.1735    2.6342 H   0  0  0  0  0  0  0  0  0  0  0  0
    0.4215   -0.8165    0.9133 Ir  0  0  0  0  0  0  0  0  0  0  0  0
    0.8726   -2.2303    1.5405 H   0  0  0  0  0  0  0  0  0  0  0  0
    0.4602    0.6455   -0.5958 B   0  0  0  0  0  0  0  0  0  0  0  0
   -0.4294    0.5561   -1.6552 O   0  0  0  0  0  0  0  0  0  0  0  0
   -0.4545    1.7855   -2.3842 C   0  0  0  0  0  0  0  0  0  0  0  0
   -0.5746    1.5007   -3.8796 C   0  0  0  0  0  0  0  0  0  0  0  0
    0.1944    0.8088   -4.2071 H   0  0  0  0  0  0  0  0  0  0  0  0
   -0.4955    2.4271   -4.4428 H   0  0  0  0  0  0  0  0  0  0  0  0
   -1.5440    1.0499   -4.0790 H   0  0  0  0  0  0  0  0  0  0  0  0
   -1.6994    2.5538   -1.9160 C   0  0  0  0  0  0  0  0  0  0  0  0
   -1.8107    3.4917   -2.4521 H   0  0  0  0  0  0  0  0  0  0  0  0
   -2.5771    1.9359   -2.0967 H   0  0  0  0  0  0  0  0  0  0  0  0
   -1.6388    2.7440   -0.8462 H   0  0  0  0  0  0  0  0  0  0  0  0
    0.8810    2.4713   -1.9451 C   0  0  0  0  0  0  0  0  0  0  0  0
    1.1709    1.8196   -0.7017 O   0  0  0  0  0  0  0  0  0  0  0  0
    2.0476    2.1613   -2.8914 C   0  0  0  0  0  0  0  0  0  0  0  0
    2.1453    1.0845   -3.0063 H   0  0  0  0  0  0  0  0  0  0  0  0
    1.9073    2.6324   -3.8599 H   0  0  0  0  0  0  0  0  0  0  0  0
    2.9650    2.5375   -2.4436 H   0  0  0  0  0  0  0  0  0  0  0  0
    0.7896    3.9815   -1.7310 C   0  0  0  0  0  0  0  0  0  0  0  0
    0.1014    4.2214   -0.9261 H   0  0  0  0  0  0  0  0  0  0  0  0
    1.7719    4.3641   -1.4641 H   0  0  0  0  0  0  0  0  0  0  0  0
    0.4614    4.4687   -2.6455 H   0  0  0  0  0  0  0  0  0  0  0  0
    1.3762    0.7297    1.9467 B   0  0  0  0  0  0  0  0  0  0  0  0
    2.7050    0.9427    2.2247 O   0  0  0  0  0  0  0  0  0  0  0  0
    2.8976    2.2933    2.6746 C   0  0  0  0  0  0  0  0  0  0  0  0
    3.9719    2.3556    3.7570 C   0  0  0  0  0  0  0  0  0  0  0  0
    3.7528    1.6798    4.5745 H   0  0  0  0  0  0  0  0  0  0  0  0
    4.9264    2.0691    3.3247 H   0  0  0  0  0  0  0  0  0  0  0  0
    4.0497    3.3719    4.1348 H   0  0  0  0  0  0  0  0  0  0  0  0
    3.3663    3.1032    1.4596 C   0  0  0  0  0  0  0  0  0  0  0  0
    3.5072    4.1502    1.7116 H   0  0  0  0  0  0  0  0  0  0  0  0
    4.3121    2.6918    1.1158 H   0  0  0  0  0  0  0  0  0  0  0  0
    2.6398    2.9955    0.6590 H   0  0  0  0  0  0  0  0  0  0  0  0
    1.4638    2.6962    3.1515 C   0  0  0  0  0  0  0  0  0  0  0  0
    0.6294    1.7904    2.4213 O   0  0  0  0  0  0  0  0  0  0  0  0
    1.0569    4.1329    2.8338 C   0  0  0  0  0  0  0  0  0  0  0  0
    1.0381    4.2939    1.7611 H   0  0  0  0  0  0  0  0  0  0  0  0
    0.0596    4.3175    3.2255 H   0  0  0  0  0  0  0  0  0  0  0  0
    1.7500    4.8300    3.2968 H   0  0  0  0  0  0  0  0  0  0  0  0
    1.2331    2.4132    4.6420 C   0  0  0  0  0  0  0  0  0  0  0  0
    1.4751    1.3744    4.8552 H   0  0  0  0  0  0  0  0  0  0  0  0
    1.8285    3.0729    5.2658 H   0  0  0  0  0  0  0  0  0  0  0  0
    0.1807    2.5660    4.8711 H   0  0  0  0  0  0  0  0  0  0  0  0
    2.2782   -1.3309    0.1741 B   0  0  0  0  0  0  0  0  0  0  0  0
    3.4010   -1.6797    0.8850 O   0  0  0  0  0  0  0  0  0  0  0  0
    4.5384   -1.7004    0.0132 C   0  0  0  0  0  0  0  0  0  0  0  0
    5.2369   -0.3463    0.1744 C   0  0  0  0  0  0  0  0  0  0  0  0
    4.5426    0.4467   -0.0902 H   0  0  0  0  0  0  0  0  0  0  0  0
    5.4939   -0.2227    1.2227 H   0  0  0  0  0  0  0  0  0  0  0  0
    6.1372   -0.2866   -0.4302 H   0  0  0  0  0  0  0  0  0  0  0  0
    5.4927   -2.8200    0.4224 C   0  0  0  0  0  0  0  0  0  0  0  0
    5.9372   -2.5715    1.3820 H   0  0  0  0  0  0  0  0  0  0  0  0
    6.2839   -2.9224   -0.3152 H   0  0  0  0  0  0  0  0  0  0  0  0
    4.9684   -3.7641    0.5265 H   0  0  0  0  0  0  0  0  0  0  0  0
    3.8812   -1.8749   -1.3972 C   0  0  0  0  0  0  0  0  0  0  0  0
    2.5488   -1.3835   -1.1814 O   0  0  0  0  0  0  0  0  0  0  0  0
    4.5457   -1.0801   -2.5192 C   0  0  0  0  0  0  0  0  0  0  0  0
    5.5894   -1.3673   -2.6129 H   0  0  0  0  0  0  0  0  0  0  0  0
    4.0372   -1.2919   -3.4567 H   0  0  0  0  0  0  0  0  0  0  0  0
    4.4775   -0.0147   -2.3281 H   0  0  0  0  0  0  0  0  0  0  0  0
    3.7639   -3.3448   -1.8235 C   0  0  0  0  0  0  0  0  0  0  0  0
    3.3055   -3.9300   -1.0305 H   0  0  0  0  0  0  0  0  0  0  0  0
    3.1263   -3.4007   -2.7029 H   0  0  0  0  0  0  0  0  0  0  0  0
    4.7379   -3.7584   -2.0662 H   0  0  0  0  0  0  0  0  0  0  0  0
   -2.7815   -3.4995   -3.4692 H   0  0  0  0  0  0  0  0  0  0  0  0
   -5.2680    1.3193    0.7850 H   0  0  0  0  0  0  0  0  0  0  0  0
    0.2359   -1.6814    2.9603 C   0  0  0  0  0  0  0  0  0  0  0  0
   -1.0655   -1.9389    3.4189 C   0  0  0  0  0  0  0  0  0  0  0  0
    1.3014   -1.8322    3.8451 C   0  0  0  0  0  0  0  0  0  0  0  0
   -1.3329   -2.2440    4.7403 C   0  0  0  0  0  0  0  0  0  0  0  0
   -1.8982   -1.9107    2.7319 H   0  0  0  0  0  0  0  0  0  0  0  0
    1.0434   -2.1935    5.1570 C   0  0  0  0  0  0  0  0  0  0  0  0
    2.3121   -1.7114    3.4937 H   0  0  0  0  0  0  0  0  0  0  0  0
   -0.2785   -2.3822    5.6345 C   0  0  0  0  0  0  0  0  0  0  0  0
   -2.3492   -2.4128    5.0670 H   0  0  0  0  0  0  0  0  0  0  0  0
    1.9117   -2.4710    6.1818 N   0  0  0  0  0  0  0  0  0  0  0  0
   -0.1710   -2.7891    7.0066 C   0  0  0  0  0  0  0  0  0  0  0  0
    3.2744   -2.6169    6.0683 O   0  0  0  0  0  0  0  0  0  0  0  0
    1.2144   -2.8474    7.2974 C   0  0  0  0  0  0  0  0  0  0  0  0
   -1.0898   -3.1399    7.9881 C   0  0  0  0  0  0  0  0  0  0  0  0
    4.4447   -1.4206    6.0055 Si  0  0  0  0  0  0  0  0  0  0  0  0
    1.6751   -3.2445    8.5433 C   0  0  0  0  0  0  0  0  0  0  0  0
   -0.6381   -3.5471    9.2326 C   0  0  0  0  0  0  0  0  0  0  0  0
   -2.1486   -3.1051    7.7759 H   0  0  0  0  0  0  0  0  0  0  0  0
    4.9266   -1.0706    4.2012 C   0  0  0  0  0  0  0  0  0  0  0  0
    3.8402    0.1078    6.9706 C   0  0  0  0  0  0  0  0  0  0  0  0
    5.8764   -2.2985    6.9047 C   0  0  0  0  0  0  0  0  0  0  0  0
    0.7357   -3.5886    9.4946 C   0  0  0  0  0  0  0  0  0  0  0  0
    2.7334   -3.2939    8.7489 H   0  0  0  0  0  0  0  0  0  0  0  0
   -1.6119   -3.9229   10.3168 C   0  0  0  0  0  0  0  0  0  0  0  0
    4.1747   -0.5188    3.6429 H   0  0  0  0  0  0  0  0  0  0  0  0
    5.0803   -2.0090    3.6745 H   0  0  0  0  0  0  0  0  0  0  0  0
    5.8548   -0.5096    4.1514 H   0  0  0  0  0  0  0  0  0  0  0  0
    2.8880    0.4578    6.5800 H   0  0  0  0  0  0  0  0  0  0  0  0
    4.5449    0.9308    6.9208 H   0  0  0  0  0  0  0  0  0  0  0  0
    3.6873   -0.1312    8.0201 H   0  0  0  0  0  0  0  0  0  0  0  0
    6.0422   -3.2873    6.4885 H   0  0  0  0  0  0  0  0  0  0  0  0
    5.6789   -2.4195    7.9654 H   0  0  0  0  0  0  0  0  0  0  0  0
    6.7994   -1.7380    6.8038 H   0  0  0  0  0  0  0  0  0  0  0  0
    1.0688   -3.9111   10.4708 H   0  0  0  0  0  0  0  0  0  0  0  0
   -1.8581   -2.7516   11.2707 C   0  0  0  0  0  0  0  0  0  0  0  0
   -1.2187   -4.7696   10.8843 H   0  0  0  0  0  0  0  0  0  0  0  0
   -2.5604   -4.2267    9.8692 H   0  0  0  0  0  0  0  0  0  0  0  0
   -0.9256   -2.4400   11.7358 H   0  0  0  0  0  0  0  0  0  0  0  0
   -2.5585   -3.0386   12.0522 H   0  0  0  0  0  0  0  0  0  0  0  0
   -2.2693   -1.9036   10.7275 H   0  0  0  0  0  0  0  0  0  0  0  0
  1  2  4  0  0  0  0
  2  3  4  0  0  0  0
  3  4  4  0  0  0  0
  4  5  4  0  0  0  0
  1  6  4  0  0  0  0
  5  6  4  0  0  0  0
  6  7  1  0  0  0  0
  5  8  1  0  0  0  0
  3  9  1  0  0  0  0
  2 10  1  0  0  0  0
 10 11  4  0  0  0  0
 11 12  4  0  0  0  0
 12 13  4  0  0  0  0
 13 14  4  0  0  0  0
 10 15  4  0  0  0  0
 14 15  4  0  0  0  0
 15 16  1  0  0  0  0
 13 17  1  0  0  0  0
 12 18  1  0  0  0  0
  1 19  1  0  0  0  0
 11 19  1  0  0  0  0
 19 20  1  0  0  0  0
 19 21  1  0  0  0  0
 21 22  1  0  0  0  0
 22 23  1  0  0  0  0
 23 24  1  0  0  0  0
 24 25  1  0  0  0  0
 24 26  1  0  0  0  0
 24 27  1  0  0  0  0
 23 28  1  0  0  0  0
 28 29  1  0  0  0  0
 28 30  1  0  0  0  0
 28 31  1  0  0  0  0
 23 32  1  0  0  0  0
 21 33  1  0  0  0  0
 32 33  1  0  0  0  0
 32 34  1  0  0  0  0
 34 35  1  0  0  0  0
 34 36  1  0  0  0  0
 34 37  1  0  0  0  0
 32 38  1  0  0  0  0
 38 39  1  0  0  0  0
 38 40  1  0  0  0  0
 38 41  1  0  0  0  0
 19 42  1  0  0  0  0
 42 43  1  0  0  0  0
 43 44  1  0  0  0  0
 44 45  1  0  0  0  0
 45 46  1  0  0  0  0
 45 47  1  0  0  0  0
 45 48  1  0  0  0  0
 44 49  1  0  0  0  0
 49 50  1  0  0  0  0
 49 51  1  0  0  0  0
 49 52  1  0  0  0  0
 44 53  1  0  0  0  0
 42 54  1  0  0  0  0
 53 54  1  0  0  0  0
 53 55  1  0  0  0  0
 55 56  1  0  0  0  0
 55 57  1  0  0  0  0
 55 58  1  0  0  0  0
 53 59  1  0  0  0  0
 59 60  1  0  0  0  0
 59 61  1  0  0  0  0
 59 62  1  0  0  0  0
 19 63  1  0  0  0  0
 63 64  1  0  0  0  0
 64 65  1  0  0  0  0
 65 66  1  0  0  0  0
 66 67  1  0  0  0  0
 66 68  1  0  0  0  0
 66 69  1  0  0  0  0
 65 70  1  0  0  0  0
 70 71  1  0  0  0  0
 70 72  1  0  0  0  0
 70 73  1  0  0  0  0
 65 74  1  0  0  0  0
 63 75  1  0  0  0  0
 74 75  1  0  0  0  0
 74 76  1  0  0  0  0
 76 77  1  0  0  0  0
 76 78  1  0  0  0  0
 76 79  1  0  0  0  0
 74 80  1  0  0  0  0
 80 81  1  0  0  0  0
 80 82  1  0  0  0  0
 80 83  1  0  0  0  0
  4 84  1  0  0  0  0
 14 85  1  0  0  0  0
 19 86  1  0  0  0  0
 20 86  1  0  0  0  0
 86 87  4  0  0  0  0
 86 88  4  0  0  0  0
 87 89  4  0  0  0  0
 87 90  1  0  0  0  0
 88 91  4  0  0  0  0
 88 92  1  0  0  0  0
 89 93  4  0  0  0  0
 91 93  4  0  0  0  0
 89 94  1  0  0  0  0
 91 95  1  0  0  0  0
 93 96  1  0  0  0  0
 95 97  1  0  0  0  0
 95 98  1  0  0  0  0
 96 98  4  0  0  0  0
 96 99  4  0  0  0  0
 97100  1  0  0  0  0
 98101  4  0  0  0  0
 99102  4  0  0  0  0
 99103  1  0  0  0  0
100104  1  0  0  0  0
100105  1  0  0  0  0
100106  1  0  0  0  0
101107  4  0  0  0  0
102107  4  0  0  0  0
101108  1  0  0  0  0
102109  1  0  0  0  0
104110  1  0  0  0  0
104111  1  0  0  0  0
104112  1  0  0  0  0
105113  1  0  0  0  0
105114  1  0  0  0  0
105115  1  0  0  0  0
106116  1  0  0  0  0
106117  1  0  0  0  0
106118  1  0  0  0  0
107119  1  0  0  0  0
109120  1  0  0  0  0
109121  1  0  0  0  0
109122  1  0  0  0  0
120123  1  0  0  0  0
120124  1  0  0  0  0
120125  1  0  0  0  0
M  END
