
  xtb     01142215283D
 xtb: 6.4.1 (1a32961)
 13 13  0     0  0            999 V2000
   -0.7165    1.1743   -0.0143 C   0  0  0  0  0  0  0  0  0  0  0  0
    0.6623    1.2518   -0.0426 C   0  0  0  0  0  0  0  0  0  0  0  0
    1.4247    0.0819   -0.0557 C   0  0  0  0  0  0  0  0  0  0  0  0
    2.8354    0.1611   -0.0907 C   0  0  0  0  0  0  0  0  0  0  0  0
    3.9807    0.2265   -0.1257 N   0  0  0  0  0  0  0  0  0  0  0  0
    0.7967   -1.1653   -0.0382 C   0  0  0  0  0  0  0  0  0  0  0  0
   -0.5822   -1.2411   -0.0099 C   0  0  0  0  0  0  0  0  0  0  0  0
   -1.3295   -0.0712    0.0017 C   0  0  0  0  0  0  0  0  0  0  0  0
   -3.0594   -0.1668    0.0390 Cl  0  0  0  0  0  0  0  0  0  0  0  0
   -1.3144    2.0711   -0.0038 H   0  0  0  0  0  0  0  0  0  0  0  0
    1.1539    2.2124   -0.0555 H   0  0  0  0  0  0  0  0  0  0  0  0
    1.3910   -2.0657   -0.0479 H   0  0  0  0  0  0  0  0  0  0  0  0
   -1.0767   -2.1989    0.0037 H   0  0  0  0  0  0  0  0  0  0  0  0
  1  2  4  0  0  0  0
  2  3  4  0  0  0  0
  3  4  1  0  0  0  0
  4  5  3  0  0  0  0
  3  6  4  0  0  0  0
  6  7  4  0  0  0  0
  1  8  4  0  0  0  0
  7  8  4  0  0  0  0
  8  9  1  0  0  0  0
  1 10  1  0  0  0  0
  2 11  1  0  0  0  0
  6 12  1  0  0  0  0
  7 13  1  0  0  0  0
M  END
