
  xtb     01142213403D
 xtb: 6.4.1 (1a32961)
 94101  0     0  0            999 V2000
   -0.9428   -2.0437   -0.3434 N   0  0  0  0  0  0  0  0  0  0  0  0
   -2.1883   -1.5603   -0.5245 C   0  0  0  0  0  0  0  0  0  0  0  0
   -3.0625   -2.1509   -1.4465 C   0  0  0  0  0  0  0  0  0  0  0  0
   -2.6473   -3.2340   -2.1889 C   0  0  0  0  0  0  0  0  0  0  0  0
   -1.3541   -3.7172   -1.9972 C   0  0  0  0  0  0  0  0  0  0  0  0
   -0.5523   -3.0897   -1.0677 C   0  0  0  0  0  0  0  0  0  0  0  0
    0.4542   -3.4355   -0.8778 H   0  0  0  0  0  0  0  0  0  0  0  0
   -0.9872   -4.5629   -2.5558 H   0  0  0  0  0  0  0  0  0  0  0  0
   -4.0601   -1.7660   -1.5807 H   0  0  0  0  0  0  0  0  0  0  0  0
   -2.5517   -0.4061    0.2861 C   0  0  0  0  0  0  0  0  0  0  0  0
   -1.6094    0.0443    1.1449 N   0  0  0  0  0  0  0  0  0  0  0  0
   -1.8968    1.0916    1.9162 C   0  0  0  0  0  0  0  0  0  0  0  0
   -3.1066    1.7538    1.8809 C   0  0  0  0  0  0  0  0  0  0  0  0
   -4.0822    1.3120    0.9896 C   0  0  0  0  0  0  0  0  0  0  0  0
   -3.7977    0.2264    0.1900 C   0  0  0  0  0  0  0  0  0  0  0  0
   -4.5390   -0.1276   -0.5072 H   0  0  0  0  0  0  0  0  0  0  0  0
   -3.2870    2.5931    2.5327 H   0  0  0  0  0  0  0  0  0  0  0  0
   -1.1044    1.4041    2.5785 H   0  0  0  0  0  0  0  0  0  0  0  0
    0.4215   -0.8165    0.9133 Ir  0  0  0  0  0  0  0  0  0  0  0  0
    0.8726   -2.2303    1.5405 H   0  0  0  0  0  0  0  0  0  0  0  0
    0.4179    0.5692   -0.6426 B   0  0  0  0  0  0  0  0  0  0  0  0
   -0.1701    0.2223   -1.8472 O   0  0  0  0  0  0  0  0  0  0  0  0
   -0.2624    1.3679   -2.6987 C   0  0  0  0  0  0  0  0  0  0  0  0
    0.0725    0.9674   -4.1336 C   0  0  0  0  0  0  0  0  0  0  0  0
    1.0178    0.4362   -4.1716 H   0  0  0  0  0  0  0  0  0  0  0  0
    0.1208    1.8486   -4.7682 H   0  0  0  0  0  0  0  0  0  0  0  0
   -0.7044    0.3058   -4.5096 H   0  0  0  0  0  0  0  0  0  0  0  0
   -1.7174    1.8554   -2.6371 C   0  0  0  0  0  0  0  0  0  0  0  0
   -1.8779    2.7004   -3.3002 H   0  0  0  0  0  0  0  0  0  0  0  0
   -2.3696    1.0380   -2.9389 H   0  0  0  0  0  0  0  0  0  0  0  0
   -1.9761    2.1335   -1.6173 H   0  0  0  0  0  0  0  0  0  0  0  0
    0.7432    2.3676   -2.0373 C   0  0  0  0  0  0  0  0  0  0  0  0
    0.8259    1.8828   -0.6908 O   0  0  0  0  0  0  0  0  0  0  0  0
    2.1530    2.2608   -2.6318 C   0  0  0  0  0  0  0  0  0  0  0  0
    2.4983    1.2337   -2.5415 H   0  0  0  0  0  0  0  0  0  0  0  0
    2.1736    2.5837   -3.6688 H   0  0  0  0  0  0  0  0  0  0  0  0
    2.8253    2.8889   -2.0519 H   0  0  0  0  0  0  0  0  0  0  0  0
    0.2973    3.8288   -2.0406 C   0  0  0  0  0  0  0  0  0  0  0  0
   -0.6149    3.9650   -1.4682 H   0  0  0  0  0  0  0  0  0  0  0  0
    1.0749    4.4388   -1.5871 H   0  0  0  0  0  0  0  0  0  0  0  0
    0.1385    4.1664   -3.0617 H   0  0  0  0  0  0  0  0  0  0  0  0
    1.5790    0.6347    1.8652 B   0  0  0  0  0  0  0  0  0  0  0  0
    2.9498    0.7340    1.9124 O   0  0  0  0  0  0  0  0  0  0  0  0
    3.3289    2.0286    2.4002 C   0  0  0  0  0  0  0  0  0  0  0  0
    4.5585    1.9070    3.2985 C   0  0  0  0  0  0  0  0  0  0  0  0
    4.4006    1.1693    4.0782 H   0  0  0  0  0  0  0  0  0  0  0  0
    5.4079    1.5890    2.6994 H   0  0  0  0  0  0  0  0  0  0  0  0
    4.7884    2.8693    3.7481 H   0  0  0  0  0  0  0  0  0  0  0  0
    3.6726    2.8735    1.1673 C   0  0  0  0  0  0  0  0  0  0  0  0
    3.9633    3.8833    1.4420 H   0  0  0  0  0  0  0  0  0  0  0  0
    4.4964    2.3987    0.6393 H   0  0  0  0  0  0  0  0  0  0  0  0
    2.8139    2.8879    0.5011 H   0  0  0  0  0  0  0  0  0  0  0  0
    2.0274    2.5179    3.1216 C   0  0  0  0  0  0  0  0  0  0  0  0
    1.0118    1.7026    2.5236 O   0  0  0  0  0  0  0  0  0  0  0  0
    1.6854    3.9903    2.8998 C   0  0  0  0  0  0  0  0  0  0  0  0
    1.4817    4.1791    1.8511 H   0  0  0  0  0  0  0  0  0  0  0  0
    0.7940    4.2390    3.4703 H   0  0  0  0  0  0  0  0  0  0  0  0
    2.5039    4.6213    3.2353 H   0  0  0  0  0  0  0  0  0  0  0  0
    2.0247    2.2163    4.6256 C   0  0  0  0  0  0  0  0  0  0  0  0
    2.2191    1.1603    4.7919 H   0  0  0  0  0  0  0  0  0  0  0  0
    2.7627    2.8184    5.1469 H   0  0  0  0  0  0  0  0  0  0  0  0
    1.0387    2.4407    5.0256 H   0  0  0  0  0  0  0  0  0  0  0  0
    2.2782   -1.3309    0.1741 B   0  0  0  0  0  0  0  0  0  0  0  0
    3.0584   -2.3703    0.6367 O   0  0  0  0  0  0  0  0  0  0  0  0
    4.3599   -2.3169    0.0390 C   0  0  0  0  0  0  0  0  0  0  0  0
    5.2878   -1.6729    1.0748 C   0  0  0  0  0  0  0  0  0  0  0  0
    4.8772   -0.7089    1.3621 H   0  0  0  0  0  0  0  0  0  0  0  0
    5.3065   -2.3048    1.9592 H   0  0  0  0  0  0  0  0  0  0  0  0
    6.2987   -1.5648    0.6938 H   0  0  0  0  0  0  0  0  0  0  0  0
    4.8426   -3.7345   -0.2655 C   0  0  0  0  0  0  0  0  0  0  0  0
    4.9529   -4.2744    0.6712 H   0  0  0  0  0  0  0  0  0  0  0  0
    5.8046   -3.7011   -0.7692 H   0  0  0  0  0  0  0  0  0  0  0  0
    4.1294   -4.2719   -0.8816 H   0  0  0  0  0  0  0  0  0  0  0  0
    4.1245   -1.4089   -1.2181 C   0  0  0  0  0  0  0  0  0  0  0  0
    2.9030   -0.7285   -0.8947 O   0  0  0  0  0  0  0  0  0  0  0  0
    5.2217   -0.3788   -1.4796 C   0  0  0  0  0  0  0  0  0  0  0  0
    6.1781   -0.8740   -1.6229 H   0  0  0  0  0  0  0  0  0  0  0  0
    4.9776    0.1824   -2.3782 H   0  0  0  0  0  0  0  0  0  0  0  0
    5.2883    0.3190   -0.6523 H   0  0  0  0  0  0  0  0  0  0  0  0
    3.8704   -2.2092   -2.5032 C   0  0  0  0  0  0  0  0  0  0  0  0
    3.0654   -2.9223   -2.3475 H   0  0  0  0  0  0  0  0  0  0  0  0
    3.5603   -1.5206   -3.2858 H   0  0  0  0  0  0  0  0  0  0  0  0
    4.7682   -2.7284   -2.8246 H   0  0  0  0  0  0  0  0  0  0  0  0
   -3.3106   -3.6974   -2.9033 H   0  0  0  0  0  0  0  0  0  0  0  0
   -5.0396    1.8068    0.9252 H   0  0  0  0  0  0  0  0  0  0  0  0
    0.2359   -1.6814    2.9603 C   0  0  0  0  0  0  0  0  0  0  0  0
   -1.0076   -2.0816    3.3588 N   0  0  0  0  0  0  0  0  0  0  0  0
    1.0063   -1.5846    4.0974 C   0  0  0  0  0  0  0  0  0  0  0  0
   -1.0545   -2.1887    4.7157 C   0  0  0  0  0  0  0  0  0  0  0  0
   -1.7842   -2.2529    2.7433 H   0  0  0  0  0  0  0  0  0  0  0  0
    0.1866   -1.8830    5.2051 C   0  0  0  0  0  0  0  0  0  0  0  0
    2.0456   -1.3232    4.1210 H   0  0  0  0  0  0  0  0  0  0  0  0
   -1.9550   -2.4681    5.2278 H   0  0  0  0  0  0  0  0  0  0  0  0
    0.4806   -1.8791    6.2377 H   0  0  0  0  0  0  0  0  0  0  0  0
  1  2  4  0  0  0  0
  2  3  4  0  0  0  0
  3  4  4  0  0  0  0
  4  5  4  0  0  0  0
  1  6  4  0  0  0  0
  5  6  4  0  0  0  0
  6  7  1  0  0  0  0
  5  8  1  0  0  0  0
  3  9  1  0  0  0  0
  2 10  1  0  0  0  0
 10 11  4  0  0  0  0
 11 12  4  0  0  0  0
 12 13  4  0  0  0  0
 13 14  4  0  0  0  0
 10 15  4  0  0  0  0
 14 15  4  0  0  0  0
 15 16  1  0  0  0  0
 13 17  1  0  0  0  0
 12 18  1  0  0  0  0
  1 19  1  0  0  0  0
 11 19  1  0  0  0  0
 19 20  1  0  0  0  0
 19 21  1  0  0  0  0
 21 22  1  0  0  0  0
 22 23  1  0  0  0  0
 23 24  1  0  0  0  0
 24 25  1  0  0  0  0
 24 26  1  0  0  0  0
 24 27  1  0  0  0  0
 23 28  1  0  0  0  0
 28 29  1  0  0  0  0
 28 30  1  0  0  0  0
 28 31  1  0  0  0  0
 23 32  1  0  0  0  0
 21 33  1  0  0  0  0
 32 33  1  0  0  0  0
 32 34  1  0  0  0  0
 34 35  1  0  0  0  0
 34 36  1  0  0  0  0
 34 37  1  0  0  0  0
 32 38  1  0  0  0  0
 38 39  1  0  0  0  0
 38 40  1  0  0  0  0
 38 41  1  0  0  0  0
 19 42  1  0  0  0  0
 42 43  1  0  0  0  0
 43 44  1  0  0  0  0
 44 45  1  0  0  0  0
 45 46  1  0  0  0  0
 45 47  1  0  0  0  0
 45 48  1  0  0  0  0
 44 49  1  0  0  0  0
 49 50  1  0  0  0  0
 49 51  1  0  0  0  0
 49 52  1  0  0  0  0
 44 53  1  0  0  0  0
 42 54  1  0  0  0  0
 53 54  1  0  0  0  0
 53 55  1  0  0  0  0
 55 56  1  0  0  0  0
 55 57  1  0  0  0  0
 55 58  1  0  0  0  0
 53 59  1  0  0  0  0
 59 60  1  0  0  0  0
 59 61  1  0  0  0  0
 59 62  1  0  0  0  0
 19 63  1  0  0  0  0
 63 64  1  0  0  0  0
 64 65  1  0  0  0  0
 65 66  1  0  0  0  0
 66 67  1  0  0  0  0
 66 68  1  0  0  0  0
 66 69  1  0  0  0  0
 65 70  1  0  0  0  0
 70 71  1  0  0  0  0
 70 72  1  0  0  0  0
 70 73  1  0  0  0  0
 65 74  1  0  0  0  0
 63 75  1  0  0  0  0
 74 75  1  0  0  0  0
 74 76  1  0  0  0  0
 76 77  1  0  0  0  0
 76 78  1  0  0  0  0
 76 79  1  0  0  0  0
 74 80  1  0  0  0  0
 80 81  1  0  0  0  0
 80 82  1  0  0  0  0
 80 83  1  0  0  0  0
  4 84  1  0  0  0  0
 14 85  1  0  0  0  0
 19 86  1  0  0  0  0
 20 86  1  0  0  0  0
 86 87  4  0  0  0  0
 86 88  4  0  0  0  0
 87 89  4  0  0  0  0
 87 90  1  0  0  0  0
 88 91  4  0  0  0  0
 89 91  2  0  0  0  0
 88 92  1  0  0  0  0
 89 93  1  0  0  0  0
 91 94  1  0  0  0  0
M  END
