
  xtb     01142214273D
 xtb: 6.4.1 (1a32961)
129137  0     0  0            999 V2000
   -0.8868   -2.0206   -0.4213 N   0  0  0  0  0  0  0  0  0  0  0  0
   -2.1419   -1.5568   -0.5719 C   0  0  0  0  0  0  0  0  0  0  0  0
   -2.9704   -2.0389   -1.5931 C   0  0  0  0  0  0  0  0  0  0  0  0
   -2.5042   -3.0071   -2.4547 C   0  0  0  0  0  0  0  0  0  0  0  0
   -1.2081   -3.4862   -2.2794 C   0  0  0  0  0  0  0  0  0  0  0  0
   -0.4494   -2.9591   -1.2557 C   0  0  0  0  0  0  0  0  0  0  0  0
    0.5625   -3.2975   -1.0838 H   0  0  0  0  0  0  0  0  0  0  0  0
   -0.8035   -4.2464   -2.9276 H   0  0  0  0  0  0  0  0  0  0  0  0
   -3.9668   -1.6487   -1.7216 H   0  0  0  0  0  0  0  0  0  0  0  0
   -2.5644   -0.5235    0.3648 C   0  0  0  0  0  0  0  0  0  0  0  0
   -1.6172   -0.0373    1.1947 N   0  0  0  0  0  0  0  0  0  0  0  0
   -1.9568    0.9120    2.0635 C   0  0  0  0  0  0  0  0  0  0  0  0
   -3.2312    1.4306    2.1672 C   0  0  0  0  0  0  0  0  0  0  0  0
   -4.2213    0.9358    1.3218 C   0  0  0  0  0  0  0  0  0  0  0  0
   -3.8798   -0.0449    0.4163 C   0  0  0  0  0  0  0  0  0  0  0  0
   -4.6341   -0.4478   -0.2394 H   0  0  0  0  0  0  0  0  0  0  0  0
   -3.4506    2.1946    2.8954 H   0  0  0  0  0  0  0  0  0  0  0  0
   -1.1550    1.2658    2.6926 H   0  0  0  0  0  0  0  0  0  0  0  0
    0.4215   -0.8165    0.9133 Ir  0  0  0  0  0  0  0  0  0  0  0  0
    0.8726   -2.2303    1.5405 H   0  0  0  0  0  0  0  0  0  0  0  0
    0.3358    0.6452   -0.5827 B   0  0  0  0  0  0  0  0  0  0  0  0
   -0.3750    0.3922   -1.7453 O   0  0  0  0  0  0  0  0  0  0  0  0
   -0.5594    1.6041   -2.4819 C   0  0  0  0  0  0  0  0  0  0  0  0
   -0.4202    1.3287   -3.9769 C   0  0  0  0  0  0  0  0  0  0  0  0
    0.5034    0.7999   -4.1875 H   0  0  0  0  0  0  0  0  0  0  0  0
   -0.4416    2.2629   -4.5323 H   0  0  0  0  0  0  0  0  0  0  0  0
   -1.2500    0.7060   -4.3033 H   0  0  0  0  0  0  0  0  0  0  0  0
   -1.9858    2.0933   -2.1890 C   0  0  0  0  0  0  0  0  0  0  0  0
   -2.2174    2.9929   -2.7515 H   0  0  0  0  0  0  0  0  0  0  0  0
   -2.6869    1.3093   -2.4690 H   0  0  0  0  0  0  0  0  0  0  0  0
   -2.1033    2.2848   -1.1240 H   0  0  0  0  0  0  0  0  0  0  0  0
    0.5356    2.5398   -1.8749 C   0  0  0  0  0  0  0  0  0  0  0  0
    0.7583    1.9569   -0.5847 O   0  0  0  0  0  0  0  0  0  0  0  0
    1.8657    2.4551   -2.6338 C   0  0  0  0  0  0  0  0  0  0  0  0
    2.1835    1.4162   -2.6834 H   0  0  0  0  0  0  0  0  0  0  0  0
    1.7806    2.8761   -3.6315 H   0  0  0  0  0  0  0  0  0  0  0  0
    2.6200    3.0075   -2.0781 H   0  0  0  0  0  0  0  0  0  0  0  0
    0.1240    4.0032   -1.7255 C   0  0  0  0  0  0  0  0  0  0  0  0
   -0.7036    4.1099   -1.0308 H   0  0  0  0  0  0  0  0  0  0  0  0
    0.9660    4.5736   -1.3405 H   0  0  0  0  0  0  0  0  0  0  0  0
   -0.1602    4.4102   -2.6927 H   0  0  0  0  0  0  0  0  0  0  0  0
    1.5289    0.6867    1.8460 B   0  0  0  0  0  0  0  0  0  0  0  0
    2.8863    0.9058    1.8072 O   0  0  0  0  0  0  0  0  0  0  0  0
    3.1981    2.1835    2.3817 C   0  0  0  0  0  0  0  0  0  0  0  0
    4.4868    2.0871    3.1971 C   0  0  0  0  0  0  0  0  0  0  0  0
    4.4356    1.2763    3.9154 H   0  0  0  0  0  0  0  0  0  0  0  0
    5.3193    1.8918    2.5262 H   0  0  0  0  0  0  0  0  0  0  0  0
    4.6691    3.0239    3.7166 H   0  0  0  0  0  0  0  0  0  0  0  0
    3.4067    3.1520    1.2117 C   0  0  0  0  0  0  0  0  0  0  0  0
    3.6312    4.1560    1.5594 H   0  0  0  0  0  0  0  0  0  0  0  0
    4.2367    2.7925    0.6073 H   0  0  0  0  0  0  0  0  0  0  0  0
    2.5153    3.1510    0.5901 H   0  0  0  0  0  0  0  0  0  0  0  0
    1.9122    2.5077    3.2163 C   0  0  0  0  0  0  0  0  0  0  0  0
    0.9267    1.6553    2.6200 O   0  0  0  0  0  0  0  0  0  0  0  0
    1.4420    3.9589    3.1368 C   0  0  0  0  0  0  0  0  0  0  0  0
    1.1684    4.2173    2.1194 H   0  0  0  0  0  0  0  0  0  0  0  0
    0.5653    4.0835    3.7676 H   0  0  0  0  0  0  0  0  0  0  0  0
    2.2236    4.6276    3.4877 H   0  0  0  0  0  0  0  0  0  0  0  0
    2.0320    2.0952    4.6894 C   0  0  0  0  0  0  0  0  0  0  0  0
    2.3203    1.0504    4.7554 H   0  0  0  0  0  0  0  0  0  0  0  0
    2.7518    2.7168    5.2132 H   0  0  0  0  0  0  0  0  0  0  0  0
    1.0588    2.2032    5.1624 H   0  0  0  0  0  0  0  0  0  0  0  0
    2.2782   -1.3309    0.1741 B   0  0  0  0  0  0  0  0  0  0  0  0
    3.2085   -2.1495    0.7782 O   0  0  0  0  0  0  0  0  0  0  0  0
    4.4539   -2.0999    0.0714 C   0  0  0  0  0  0  0  0  0  0  0  0
    5.3858   -1.1985    0.8888 C   0  0  0  0  0  0  0  0  0  0  0  0
    4.8969   -0.2419    1.0489 H   0  0  0  0  0  0  0  0  0  0  0  0
    5.5456   -1.6600    1.8599 H   0  0  0  0  0  0  0  0  0  0  0  0
    6.3447   -1.0652    0.3980 H   0  0  0  0  0  0  0  0  0  0  0  0
    5.0514   -3.5055   -0.0044 C   0  0  0  0  0  0  0  0  0  0  0  0
    5.2712   -3.8464    1.0038 H   0  0  0  0  0  0  0  0  0  0  0  0
    5.9724   -3.4894   -0.5804 H   0  0  0  0  0  0  0  0  0  0  0  0
    4.3559   -4.2080   -0.4511 H   0  0  0  0  0  0  0  0  0  0  0  0
    4.0485   -1.4755   -1.3118 C   0  0  0  0  0  0  0  0  0  0  0  0
    2.7606   -0.9035   -1.0425 O   0  0  0  0  0  0  0  0  0  0  0  0
    4.9810   -0.3746   -1.8163 C   0  0  0  0  0  0  0  0  0  0  0  0
    5.9905   -0.7569   -1.9386 H   0  0  0  0  0  0  0  0  0  0  0  0
    4.6212   -0.0198   -2.7790 H   0  0  0  0  0  0  0  0  0  0  0  0
    4.9833    0.4629   -1.1272 H   0  0  0  0  0  0  0  0  0  0  0  0
    3.8622   -2.5200   -2.4208 C   0  0  0  0  0  0  0  0  0  0  0  0
    3.1661   -3.2900   -2.1003 H   0  0  0  0  0  0  0  0  0  0  0  0
    3.4396   -2.0284   -3.2937 H   0  0  0  0  0  0  0  0  0  0  0  0
    4.8107   -2.9725   -2.6941 H   0  0  0  0  0  0  0  0  0  0  0  0
   -3.1305   -3.3828   -3.2497 H   0  0  0  0  0  0  0  0  0  0  0  0
   -5.2335    1.3074    1.3750 H   0  0  0  0  0  0  0  0  0  0  0  0
    0.2359   -1.6814    2.9603 C   0  0  0  0  0  0  0  0  0  0  0  0
   -1.0176   -2.2165    3.3107 C   0  0  0  0  0  0  0  0  0  0  0  0
    1.2043   -1.5276    3.9399 C   0  0  0  0  0  0  0  0  0  0  0  0
   -1.3361   -2.5668    4.6036 C   0  0  0  0  0  0  0  0  0  0  0  0
   -1.7582   -2.3857    2.5410 H   0  0  0  0  0  0  0  0  0  0  0  0
    0.8865   -1.8592    5.2521 C   0  0  0  0  0  0  0  0  0  0  0  0
    2.1925   -1.1867    3.6739 H   0  0  0  0  0  0  0  0  0  0  0  0
   -0.3702   -2.4104    5.6012 C   0  0  0  0  0  0  0  0  0  0  0  0
   -2.3093   -2.9789    4.8351 H   0  0  0  0  0  0  0  0  0  0  0  0
    1.6469   -1.8221    6.3871 N   0  0  0  0  0  0  0  0  0  0  0  0
   -0.3119   -2.7267    6.9954 C   0  0  0  0  0  0  0  0  0  0  0  0
    0.9306   -2.3515    7.4236 C   0  0  0  0  0  0  0  0  0  0  0  0
    2.5959   -1.4961    6.4439 H   0  0  0  0  0  0  0  0  0  0  0  0
   -1.3592   -3.4529    7.7739 C   0  0  0  0  0  0  0  0  0  0  0  0
    1.3548   -2.4226    8.4064 H   0  0  0  0  0  0  0  0  0  0  0  0
   -1.1087   -4.9737    7.7173 C   0  0  0  0  0  0  0  0  0  0  0  0
   -2.3479   -3.2526    7.3581 H   0  0  0  0  0  0  0  0  0  0  0  0
   -1.3474   -3.1445    8.8198 H   0  0  0  0  0  0  0  0  0  0  0  0
   -1.0156   -5.4125    6.3428 N   0  0  0  0  0  0  0  0  0  0  0  0
   -2.2662   -5.7166    8.3807 C   0  0  0  0  0  0  0  0  0  0  0  0
   -0.1874   -5.2265    8.2584 H   0  0  0  0  0  0  0  0  0  0  0  0
   -1.2007   -6.7003    6.0057 C   0  0  0  0  0  0  0  0  0  0  0  0
   -0.8374   -4.7245    5.6238 H   0  0  0  0  0  0  0  0  0  0  0  0
   -3.3959   -5.7268    7.9532 O   0  0  0  0  0  0  0  0  0  0  0  0
   -1.8911   -6.2706    9.5239 O   0  0  0  0  0  0  0  0  0  0  0  0
   -1.4258   -7.5770    6.8218 O   0  0  0  0  0  0  0  0  0  0  0  0
   -1.0859   -6.8534    4.6814 O   0  0  0  0  0  0  0  0  0  0  0  0
   -2.8771   -7.0158   10.2413 C   0  0  0  0  0  0  0  0  0  0  0  0
   -1.1879   -8.1599    4.0479 C   0  0  0  0  0  0  0  0  0  0  0  0
   -2.4339   -7.2410   11.2072 H   0  0  0  0  0  0  0  0  0  0  0  0
   -3.1075   -7.9323    9.6962 H   0  0  0  0  0  0  0  0  0  0  0  0
   -3.7880   -6.4247   10.3514 H   0  0  0  0  0  0  0  0  0  0  0  0
   -2.5685   -8.7668    4.2948 C   0  0  0  0  0  0  0  0  0  0  0  0
   -0.9916   -7.8572    2.5611 C   0  0  0  0  0  0  0  0  0  0  0  0
   -0.0796   -9.0807    4.5586 C   0  0  0  0  0  0  0  0  0  0  0  0
   -3.3432   -8.0783    3.9644 H   0  0  0  0  0  0  0  0  0  0  0  0
   -2.7093   -8.9651    5.3541 H   0  0  0  0  0  0  0  0  0  0  0  0
   -2.6615   -9.6984    3.7444 H   0  0  0  0  0  0  0  0  0  0  0  0
   -1.7762   -7.1927    2.2104 H   0  0  0  0  0  0  0  0  0  0  0  0
   -1.0226   -8.7804    1.9912 H   0  0  0  0  0  0  0  0  0  0  0  0
   -0.0331   -7.3699    2.4060 H   0  0  0  0  0  0  0  0  0  0  0  0
   -0.2053   -9.2660    5.6223 H   0  0  0  0  0  0  0  0  0  0  0  0
    0.8923   -8.6209    4.3939 H   0  0  0  0  0  0  0  0  0  0  0  0
   -0.1199  -10.0276    4.0286 H   0  0  0  0  0  0  0  0  0  0  0  0
  1  2  4  0  0  0  0
  2  3  4  0  0  0  0
  3  4  4  0  0  0  0
  4  5  4  0  0  0  0
  1  6  4  0  0  0  0
  5  6  4  0  0  0  0
  6  7  1  0  0  0  0
  5  8  1  0  0  0  0
  3  9  1  0  0  0  0
  2 10  1  0  0  0  0
 10 11  4  0  0  0  0
 11 12  4  0  0  0  0
 12 13  4  0  0  0  0
 13 14  4  0  0  0  0
 10 15  4  0  0  0  0
 14 15  4  0  0  0  0
 15 16  1  0  0  0  0
 13 17  1  0  0  0  0
 12 18  1  0  0  0  0
  1 19  1  0  0  0  0
 11 19  1  0  0  0  0
 19 20  1  0  0  0  0
 19 21  1  0  0  0  0
 21 22  1  0  0  0  0
 22 23  1  0  0  0  0
 23 24  1  0  0  0  0
 24 25  1  0  0  0  0
 24 26  1  0  0  0  0
 24 27  1  0  0  0  0
 23 28  1  0  0  0  0
 28 29  1  0  0  0  0
 28 30  1  0  0  0  0
 28 31  1  0  0  0  0
 23 32  1  0  0  0  0
 21 33  1  0  0  0  0
 32 33  1  0  0  0  0
 32 34  1  0  0  0  0
 34 35  1  0  0  0  0
 34 36  1  0  0  0  0
 34 37  1  0  0  0  0
 32 38  1  0  0  0  0
 38 39  1  0  0  0  0
 38 40  1  0  0  0  0
 38 41  1  0  0  0  0
 19 42  1  0  0  0  0
 42 43  1  0  0  0  0
 43 44  1  0  0  0  0
 44 45  1  0  0  0  0
 45 46  1  0  0  0  0
 45 47  1  0  0  0  0
 45 48  1  0  0  0  0
 44 49  1  0  0  0  0
 49 50  1  0  0  0  0
 49 51  1  0  0  0  0
 49 52  1  0  0  0  0
 44 53  1  0  0  0  0
 42 54  1  0  0  0  0
 53 54  1  0  0  0  0
 53 55  1  0  0  0  0
 55 56  1  0  0  0  0
 55 57  1  0  0  0  0
 55 58  1  0  0  0  0
 53 59  1  0  0  0  0
 59 60  1  0  0  0  0
 59 61  1  0  0  0  0
 59 62  1  0  0  0  0
 19 63  1  0  0  0  0
 63 64  1  0  0  0  0
 64 65  1  0  0  0  0
 65 66  1  0  0  0  0
 66 67  1  0  0  0  0
 66 68  1  0  0  0  0
 66 69  1  0  0  0  0
 65 70  1  0  0  0  0
 70 71  1  0  0  0  0
 70 72  1  0  0  0  0
 70 73  1  0  0  0  0
 65 74  1  0  0  0  0
 63 75  1  0  0  0  0
 74 75  1  0  0  0  0
 74 76  1  0  0  0  0
 76 77  1  0  0  0  0
 76 78  1  0  0  0  0
 76 79  1  0  0  0  0
 74 80  1  0  0  0  0
 80 81  1  0  0  0  0
 80 82  1  0  0  0  0
 80 83  1  0  0  0  0
  4 84  1  0  0  0  0
 14 85  1  0  0  0  0
 19 86  1  0  0  0  0
 20 86  1  0  0  0  0
 86 87  4  0  0  0  0
 86 88  4  0  0  0  0
 87 89  2  0  0  0  0
 87 90  1  0  0  0  0
 88 91  4  0  0  0  0
 88 92  1  0  0  0  0
 89 93  4  0  0  0  0
 91 93  4  0  0  0  0
 89 94  1  0  0  0  0
 91 95  1  0  0  0  0
 93 96  4  0  0  0  0
 95 97  4  0  0  0  0
 96 97  2  0  0  0  0
 95 98  1  0  0  0  0
 96 99  1  0  0  0  0
 97100  1  0  0  0  0
 99101  1  0  0  0  0
 99102  1  0  0  0  0
 99103  1  0  0  0  0
101104  1  0  0  0  0
101105  1  0  0  0  0
101106  1  0  0  0  0
104107  4  0  0  0  0
104108  1  0  0  0  0
105109  2  0  0  0  0
105110  1  0  0  0  0
107111  2  0  0  0  0
107112  1  0  0  0  0
110113  1  0  0  0  0
112114  1  0  0  0  0
113115  1  0  0  0  0
113116  1  0  0  0  0
113117  1  0  0  0  0
114118  1  0  0  0  0
114119  1  0  0  0  0
114120  1  0  0  0  0
118121  1  0  0  0  0
118122  1  0  0  0  0
118123  1  0  0  0  0
119124  1  0  0  0  0
119125  1  0  0  0  0
119126  1  0  0  0  0
120127  1  0  0  0  0
120128  1  0  0  0  0
120129  1  0  0  0  0
M  END
