
  xtb     01142215313D
 xtb: 6.4.1 (1a32961)
 10 10  0     0  0            999 V2000
    1.3068   -0.9127    0.0066 S   0  0  0  0  0  0  0  0  0  0  0  0
   -0.4083   -1.2146    0.0065 C   0  0  0  0  0  0  0  0  0  0  0  0
   -0.9018   -2.5204    0.0102 C   0  0  0  0  0  0  0  0  0  0  0  0
   -1.3147   -3.5925    0.0131 N   0  0  0  0  0  0  0  0  0  0  0  0
   -1.1367   -0.0499    0.0027 C   0  0  0  0  0  0  0  0  0  0  0  0
   -0.3305    1.0989   -0.0001 C   0  0  0  0  0  0  0  0  0  0  0  0
    0.9995    0.7887    0.0016 C   0  0  0  0  0  0  0  0  0  0  0  0
    2.4325    2.0093   -0.0014 Br  0  0  0  0  0  0  0  0  0  0  0  0
   -2.2112   -0.0311    0.0019 H   0  0  0  0  0  0  0  0  0  0  0  0
   -0.7073    2.1048   -0.0033 H   0  0  0  0  0  0  0  0  0  0  0  0
  1  2  1  0  0  0  0
  2  3  1  0  0  0  0
  3  4  3  0  0  0  0
  2  5  4  0  0  0  0
  5  6  4  0  0  0  0
  1  7  1  0  0  0  0
  6  7  2  0  0  0  0
  7  8  1  0  0  0  0
  5  9  1  0  0  0  0
  6 10  1  0  0  0  0
M  END
