   26
Created with kallisto
C      0.9233    1.1966   -0.0377
C      0.5643    0.6265   -1.2524
C      0.5518    0.5425    1.1236
C     -0.1542   -0.5673   -1.2619
H      0.8379    1.1093   -2.1862
N     -0.1420   -0.6176    1.1453
H      0.8072    0.9464    2.0989
C     -0.4968   -1.1564   -0.0468
H     -0.4442   -1.0212   -2.2035
C     -1.2791   -2.4453   -0.0064
C     -0.3568   -3.6657   -0.0017
H     -1.9710   -2.4848   -0.8576
H     -1.9076   -2.4421    0.8935
C     -1.1275   -4.9599    0.1148
H      0.3606   -3.6008    0.8275
H      0.2528   -3.6869   -0.9146
C     -1.5379   -5.6583   -1.0288
C     -1.4604   -5.4720    1.3770
C     -2.2561   -6.8503   -0.9110
H     -1.2968   -5.2819   -2.0202
C     -2.1776   -6.6647    1.4929
H     -1.1575   -4.9444    2.2791
C     -2.5751   -7.3540    0.3492
H     -2.5665   -7.3891   -1.8028
H     -2.4249   -7.0550    2.4764
H     -3.1327   -8.2821    0.4401
