
  xtb     01142213123D
 xtb: 6.4.1 (1a32961)
101109  0     0  0            999 V2000
   -0.9359   -2.0150   -0.3660 N   0  0  0  0  0  0  0  0  0  0  0  0
   -2.1647   -1.5024   -0.5614 C   0  0  0  0  0  0  0  0  0  0  0  0
   -3.0542   -2.0940   -1.4664 C   0  0  0  0  0  0  0  0  0  0  0  0
   -2.6699   -3.2108   -2.1757 C   0  0  0  0  0  0  0  0  0  0  0  0
   -1.3924   -3.7242   -1.9693 C   0  0  0  0  0  0  0  0  0  0  0  0
   -0.5737   -3.0907   -1.0577 C   0  0  0  0  0  0  0  0  0  0  0  0
    0.4235   -3.4579   -0.8586 H   0  0  0  0  0  0  0  0  0  0  0  0
   -1.0490   -4.5969   -2.5007 H   0  0  0  0  0  0  0  0  0  0  0  0
   -4.0417   -1.6882   -1.6105 H   0  0  0  0  0  0  0  0  0  0  0  0
   -2.5040   -0.3209    0.2229 C   0  0  0  0  0  0  0  0  0  0  0  0
   -1.5751    0.1044    1.1062 N   0  0  0  0  0  0  0  0  0  0  0  0
   -1.8565    1.1585    1.8691 C   0  0  0  0  0  0  0  0  0  0  0  0
   -3.0435    1.8584    1.7954 C   0  0  0  0  0  0  0  0  0  0  0  0
   -3.9978    1.4521    0.8671 C   0  0  0  0  0  0  0  0  0  0  0  0
   -3.7204    0.3557    0.0788 C   0  0  0  0  0  0  0  0  0  0  0  0
   -4.4462    0.0274   -0.6463 H   0  0  0  0  0  0  0  0  0  0  0  0
   -3.2198    2.7000    2.4456 H   0  0  0  0  0  0  0  0  0  0  0  0
   -1.0792    1.4498    2.5587 H   0  0  0  0  0  0  0  0  0  0  0  0
    0.4215   -0.8165    0.9133 Ir  0  0  0  0  0  0  0  0  0  0  0  0
    0.8726   -2.2303    1.5405 H   0  0  0  0  0  0  0  0  0  0  0  0
    0.4411    0.5792   -0.6402 B   0  0  0  0  0  0  0  0  0  0  0  0
   -0.1629    0.2529   -1.8399 O   0  0  0  0  0  0  0  0  0  0  0  0
   -0.2125    1.3997   -2.6955 C   0  0  0  0  0  0  0  0  0  0  0  0
    0.1043    0.9811   -4.1292 C   0  0  0  0  0  0  0  0  0  0  0  0
    1.0277    0.4129   -4.1667 H   0  0  0  0  0  0  0  0  0  0  0  0
    0.1863    1.8576   -4.7667 H   0  0  0  0  0  0  0  0  0  0  0  0
   -0.6987    0.3494   -4.5016 H   0  0  0  0  0  0  0  0  0  0  0  0
   -1.6462    1.9454   -2.6342 C   0  0  0  0  0  0  0  0  0  0  0  0
   -1.7715    2.7940   -3.3001 H   0  0  0  0  0  0  0  0  0  0  0  0
   -2.3314    1.1546   -2.9334 H   0  0  0  0  0  0  0  0  0  0  0  0
   -1.8932    2.2375   -1.6154 H   0  0  0  0  0  0  0  0  0  0  0  0
    0.8331    2.3605   -2.0389 C   0  0  0  0  0  0  0  0  0  0  0  0
    0.8980    1.8759   -0.6897 O   0  0  0  0  0  0  0  0  0  0  0  0
    2.2364    2.1942   -2.6346 C   0  0  0  0  0  0  0  0  0  0  0  0
    2.5393    1.1543   -2.5406 H   0  0  0  0  0  0  0  0  0  0  0  0
    2.2681    2.5120   -3.6727 H   0  0  0  0  0  0  0  0  0  0  0  0
    2.9344    2.7969   -2.0584 H   0  0  0  0  0  0  0  0  0  0  0  0
    0.4467    3.8382   -2.0457 C   0  0  0  0  0  0  0  0  0  0  0  0
   -0.4589    4.0127   -1.4733 H   0  0  0  0  0  0  0  0  0  0  0  0
    1.2489    4.4176   -1.5950 H   0  0  0  0  0  0  0  0  0  0  0  0
    0.3009    4.1788   -3.0676 H   0  0  0  0  0  0  0  0  0  0  0  0
    1.5885    0.6468    1.8426 B   0  0  0  0  0  0  0  0  0  0  0  0
    2.9609    0.7411    1.8704 O   0  0  0  0  0  0  0  0  0  0  0  0
    3.3572    2.0263    2.3702 C   0  0  0  0  0  0  0  0  0  0  0  0
    4.5875    1.8787    3.2642 C   0  0  0  0  0  0  0  0  0  0  0  0
    4.4217    1.1394    4.0408 H   0  0  0  0  0  0  0  0  0  0  0  0
    5.4298    1.5510    2.6602 H   0  0  0  0  0  0  0  0  0  0  0  0
    4.8347    2.8344    3.7183 H   0  0  0  0  0  0  0  0  0  0  0  0
    3.7118    2.8777    1.1455 C   0  0  0  0  0  0  0  0  0  0  0  0
    4.0102    3.8826    1.4292 H   0  0  0  0  0  0  0  0  0  0  0  0
    4.5338    2.4000    0.6169 H   0  0  0  0  0  0  0  0  0  0  0  0
    2.8556    2.9049    0.4766 H   0  0  0  0  0  0  0  0  0  0  0  0
    2.0641    2.5250    3.1021 C   0  0  0  0  0  0  0  0  0  0  0  0
    1.0374    1.7080    2.5231 O   0  0  0  0  0  0  0  0  0  0  0  0
    1.7228    3.9959    2.8700 C   0  0  0  0  0  0  0  0  0  0  0  0
    1.5157    4.1770    1.8206 H   0  0  0  0  0  0  0  0  0  0  0  0
    0.8330    4.2487    3.4413 H   0  0  0  0  0  0  0  0  0  0  0  0
    2.5424    4.6290    3.1986 H   0  0  0  0  0  0  0  0  0  0  0  0
    2.0751    2.2390    4.6092 C   0  0  0  0  0  0  0  0  0  0  0  0
    2.2649    1.1840    4.7864 H   0  0  0  0  0  0  0  0  0  0  0  0
    2.8217    2.8425    5.1161 H   0  0  0  0  0  0  0  0  0  0  0  0
    1.0947    2.4740    5.0171 H   0  0  0  0  0  0  0  0  0  0  0  0
    2.2782   -1.3309    0.1741 B   0  0  0  0  0  0  0  0  0  0  0  0
    3.0728   -2.3296    0.6995 O   0  0  0  0  0  0  0  0  0  0  0  0
    4.3636   -2.3212    0.0767 C   0  0  0  0  0  0  0  0  0  0  0  0
    5.3150   -1.6271    1.0573 C   0  0  0  0  0  0  0  0  0  0  0  0
    4.9170   -0.6452    1.2973 H   0  0  0  0  0  0  0  0  0  0  0  0
    5.3465   -2.2091    1.9750 H   0  0  0  0  0  0  0  0  0  0  0  0
    6.3192   -1.5482    0.6526 H   0  0  0  0  0  0  0  0  0  0  0  0
    4.8294   -3.7591   -0.1508 C   0  0  0  0  0  0  0  0  0  0  0  0
    4.9520   -4.2436    0.8143 H   0  0  0  0  0  0  0  0  0  0  0  0
    5.7824   -3.7652   -0.6723 H   0  0  0  0  0  0  0  0  0  0  0  0
    4.1006   -4.3258   -0.7207 H   0  0  0  0  0  0  0  0  0  0  0  0
    4.1111   -1.4888   -1.2289 C   0  0  0  0  0  0  0  0  0  0  0  0
    2.8881   -0.7946   -0.9357 O   0  0  0  0  0  0  0  0  0  0  0  0
    5.2017   -0.4714   -1.5586 C   0  0  0  0  0  0  0  0  0  0  0  0
    6.1593   -0.9708   -1.6771 H   0  0  0  0  0  0  0  0  0  0  0  0
    4.9512    0.0332   -2.4883 H   0  0  0  0  0  0  0  0  0  0  0  0
    5.2702    0.2758   -0.7757 H   0  0  0  0  0  0  0  0  0  0  0  0
    3.8489   -2.3628   -2.4630 C   0  0  0  0  0  0  0  0  0  0  0  0
    3.0434   -3.0637   -2.2615 H   0  0  0  0  0  0  0  0  0  0  0  0
    3.5362   -1.7210   -3.2833 H   0  0  0  0  0  0  0  0  0  0  0  0
    4.7437   -2.9023   -2.7580 H   0  0  0  0  0  0  0  0  0  0  0  0
   -3.3471   -3.6770   -2.8752 H   0  0  0  0  0  0  0  0  0  0  0  0
   -4.9339    1.9802    0.7659 H   0  0  0  0  0  0  0  0  0  0  0  0
    0.2359   -1.6814    2.9603 C   0  0  0  0  0  0  0  0  0  0  0  0
   -1.0018   -2.1162    3.4254 C   0  0  0  0  0  0  0  0  0  0  0  0
    1.2041   -1.4636    3.9387 C   0  0  0  0  0  0  0  0  0  0  0  0
   -1.3019   -2.2157    4.8052 C   0  0  0  0  0  0  0  0  0  0  0  0
   -2.4006   -2.6393    2.5161 S   0  0  0  0  0  0  0  0  0  0  0  0
    0.9274   -1.5602    5.2988 C   0  0  0  0  0  0  0  0  0  0  0  0
    2.2029   -1.2118    3.6173 H   0  0  0  0  0  0  0  0  0  0  0  0
   -2.5670   -2.6502    5.0932 N   0  0  0  0  0  0  0  0  0  0  0  0
   -0.3270   -1.9172    5.7502 C   0  0  0  0  0  0  0  0  0  0  0  0
   -3.2487   -2.9133    4.0470 C   0  0  0  0  0  0  0  0  0  0  0  0
    1.7107   -1.3600    6.0155 H   0  0  0  0  0  0  0  0  0  0  0  0
   -0.5616   -1.9957    6.7996 H   0  0  0  0  0  0  0  0  0  0  0  0
   -4.6438   -3.4101    4.0478 C   0  0  0  0  0  0  0  0  0  0  0  0
   -5.2982   -2.6907    3.5578 H   0  0  0  0  0  0  0  0  0  0  0  0
   -4.9706   -3.5581    5.0732 H   0  0  0  0  0  0  0  0  0  0  0  0
   -4.7067   -4.3500    3.5021 H   0  0  0  0  0  0  0  0  0  0  0  0
  1  2  4  0  0  0  0
  2  3  4  0  0  0  0
  3  4  4  0  0  0  0
  4  5  4  0  0  0  0
  1  6  4  0  0  0  0
  5  6  4  0  0  0  0
  6  7  1  0  0  0  0
  5  8  1  0  0  0  0
  3  9  1  0  0  0  0
  2 10  1  0  0  0  0
 10 11  4  0  0  0  0
 11 12  4  0  0  0  0
 12 13  4  0  0  0  0
 13 14  4  0  0  0  0
 10 15  4  0  0  0  0
 14 15  4  0  0  0  0
 15 16  1  0  0  0  0
 13 17  1  0  0  0  0
 12 18  1  0  0  0  0
  1 19  1  0  0  0  0
 11 19  1  0  0  0  0
 19 20  1  0  0  0  0
 19 21  1  0  0  0  0
 21 22  1  0  0  0  0
 22 23  1  0  0  0  0
 23 24  1  0  0  0  0
 24 25  1  0  0  0  0
 24 26  1  0  0  0  0
 24 27  1  0  0  0  0
 23 28  1  0  0  0  0
 28 29  1  0  0  0  0
 28 30  1  0  0  0  0
 28 31  1  0  0  0  0
 23 32  1  0  0  0  0
 21 33  1  0  0  0  0
 32 33  1  0  0  0  0
 32 34  1  0  0  0  0
 34 35  1  0  0  0  0
 34 36  1  0  0  0  0
 34 37  1  0  0  0  0
 32 38  1  0  0  0  0
 38 39  1  0  0  0  0
 38 40  1  0  0  0  0
 38 41  1  0  0  0  0
 19 42  1  0  0  0  0
 42 43  1  0  0  0  0
 43 44  1  0  0  0  0
 44 45  1  0  0  0  0
 45 46  1  0  0  0  0
 45 47  1  0  0  0  0
 45 48  1  0  0  0  0
 44 49  1  0  0  0  0
 49 50  1  0  0  0  0
 49 51  1  0  0  0  0
 49 52  1  0  0  0  0
 44 53  1  0  0  0  0
 42 54  1  0  0  0  0
 53 54  1  0  0  0  0
 53 55  1  0  0  0  0
 55 56  1  0  0  0  0
 55 57  1  0  0  0  0
 55 58  1  0  0  0  0
 53 59  1  0  0  0  0
 59 60  1  0  0  0  0
 59 61  1  0  0  0  0
 59 62  1  0  0  0  0
 19 63  1  0  0  0  0
 63 64  1  0  0  0  0
 64 65  1  0  0  0  0
 65 66  1  0  0  0  0
 66 67  1  0  0  0  0
 66 68  1  0  0  0  0
 66 69  1  0  0  0  0
 65 70  1  0  0  0  0
 70 71  1  0  0  0  0
 70 72  1  0  0  0  0
 70 73  1  0  0  0  0
 65 74  1  0  0  0  0
 63 75  1  0  0  0  0
 74 75  1  0  0  0  0
 74 76  1  0  0  0  0
 76 77  1  0  0  0  0
 76 78  1  0  0  0  0
 76 79  1  0  0  0  0
 74 80  1  0  0  0  0
 80 81  1  0  0  0  0
 80 82  1  0  0  0  0
 80 83  1  0  0  0  0
  4 84  1  0  0  0  0
 14 85  1  0  0  0  0
 19 86  1  0  0  0  0
 20 86  1  0  0  0  0
 86 87  4  0  0  0  0
 86 88  4  0  0  0  0
 87 89  4  0  0  0  0
 87 90  1  0  0  0  0
 88 91  4  0  0  0  0
 88 92  1  0  0  0  0
 89 93  1  0  0  0  0
 89 94  4  0  0  0  0
 91 94  4  0  0  0  0
 90 95  1  0  0  0  0
 93 95  2  0  0  0  0
 91 96  1  0  0  0  0
 94 97  1  0  0  0  0
 95 98  1  0  0  0  0
 98 99  1  0  0  0  0
 98100  1  0  0  0  0
 98101  1  0  0  0  0
M  END
