
  xtb     01142213483D
 xtb: 6.4.1 (1a32961)
106114  0     0  0            999 V2000
   -0.9311   -2.0024   -0.3926 N   0  0  0  0  0  0  0  0  0  0  0  0
   -2.1915   -1.5428   -0.4866 C   0  0  0  0  0  0  0  0  0  0  0  0
   -3.0659   -2.0304   -1.4643 C   0  0  0  0  0  0  0  0  0  0  0  0
   -2.6402   -3.0069   -2.3390 C   0  0  0  0  0  0  0  0  0  0  0  0
   -1.3376   -3.4821   -2.2220 C   0  0  0  0  0  0  0  0  0  0  0  0
   -0.5304   -2.9442   -1.2408 C   0  0  0  0  0  0  0  0  0  0  0  0
    0.4909   -3.2754   -1.1184 H   0  0  0  0  0  0  0  0  0  0  0  0
   -0.9622   -4.2479   -2.8810 H   0  0  0  0  0  0  0  0  0  0  0  0
   -4.0664   -1.6398   -1.5499 H   0  0  0  0  0  0  0  0  0  0  0  0
   -2.5771   -0.5077    0.4673 C   0  0  0  0  0  0  0  0  0  0  0  0
   -1.5945    0.0023    1.2344 N   0  0  0  0  0  0  0  0  0  0  0  0
   -1.8957    0.9565    2.1110 C   0  0  0  0  0  0  0  0  0  0  0  0
   -3.1715    1.4550    2.2851 C   0  0  0  0  0  0  0  0  0  0  0  0
   -4.2000    0.9301    1.5095 C   0  0  0  0  0  0  0  0  0  0  0  0
   -3.8958   -0.0565    0.5958 C   0  0  0  0  0  0  0  0  0  0  0  0
   -4.6811   -0.4849   -0.0043 H   0  0  0  0  0  0  0  0  0  0  0  0
   -3.3586    2.2265    3.0143 H   0  0  0  0  0  0  0  0  0  0  0  0
   -1.0645    1.3313    2.6892 H   0  0  0  0  0  0  0  0  0  0  0  0
    0.4215   -0.8165    0.9133 Ir  0  0  0  0  0  0  0  0  0  0  0  0
    0.8726   -2.2303    1.5405 H   0  0  0  0  0  0  0  0  0  0  0  0
    0.3493    0.6460   -0.5752 B   0  0  0  0  0  0  0  0  0  0  0  0
   -0.4605    0.4675   -1.6853 O   0  0  0  0  0  0  0  0  0  0  0  0
   -0.6404    1.7159   -2.3621 C   0  0  0  0  0  0  0  0  0  0  0  0
   -0.6512    1.4934   -3.8722 C   0  0  0  0  0  0  0  0  0  0  0  0
    0.2187    0.9262   -4.1863 H   0  0  0  0  0  0  0  0  0  0  0  0
   -0.6702    2.4493   -4.3894 H   0  0  0  0  0  0  0  0  0  0  0  0
   -1.5407    0.9293   -4.1429 H   0  0  0  0  0  0  0  0  0  0  0  0
   -2.0045    2.2689   -1.9229 C   0  0  0  0  0  0  0  0  0  0  0  0
   -2.2362    3.1982   -2.4347 H   0  0  0  0  0  0  0  0  0  0  0  0
   -2.7708    1.5329   -2.1590 H   0  0  0  0  0  0  0  0  0  0  0  0
   -2.0128    2.4296   -0.8465 H   0  0  0  0  0  0  0  0  0  0  0  0
    0.5549    2.5669   -1.8239 C   0  0  0  0  0  0  0  0  0  0  0  0
    0.8481    1.9287   -0.5734 O   0  0  0  0  0  0  0  0  0  0  0  0
    1.8106    2.4309   -2.6934 C   0  0  0  0  0  0  0  0  0  0  0  0
    2.0555    1.3776   -2.8075 H   0  0  0  0  0  0  0  0  0  0  0  0
    1.6729    2.8974   -3.6644 H   0  0  0  0  0  0  0  0  0  0  0  0
    2.6405    2.9115   -2.1809 H   0  0  0  0  0  0  0  0  0  0  0  0
    0.2458    4.0452   -1.5980 C   0  0  0  0  0  0  0  0  0  0  0  0
   -0.5132    4.1754   -0.8327 H   0  0  0  0  0  0  0  0  0  0  0  0
    1.1498    4.5530   -1.2700 H   0  0  0  0  0  0  0  0  0  0  0  0
   -0.0933    4.4995   -2.5255 H   0  0  0  0  0  0  0  0  0  0  0  0
    1.5773    0.6319    1.8813 B   0  0  0  0  0  0  0  0  0  0  0  0
    2.9338    0.8210    1.8126 O   0  0  0  0  0  0  0  0  0  0  0  0
    3.2968    2.0556    2.4476 C   0  0  0  0  0  0  0  0  0  0  0  0
    4.5995    1.8757    3.2248 C   0  0  0  0  0  0  0  0  0  0  0  0
    4.5325    1.0362    3.9084 H   0  0  0  0  0  0  0  0  0  0  0  0
    5.4069    1.6778    2.5248 H   0  0  0  0  0  0  0  0  0  0  0  0
    4.8299    2.7807    3.7805 H   0  0  0  0  0  0  0  0  0  0  0  0
    3.5073    3.0786    1.3244 C   0  0  0  0  0  0  0  0  0  0  0  0
    3.7614    4.0578    1.7188 H   0  0  0  0  0  0  0  0  0  0  0  0
    4.3187    2.7319    0.6883 H   0  0  0  0  0  0  0  0  0  0  0  0
    2.6064    3.1298    0.7182 H   0  0  0  0  0  0  0  0  0  0  0  0
    2.0412    2.3688    3.3301 C   0  0  0  0  0  0  0  0  0  0  0  0
    1.0161    1.5798    2.7109 O   0  0  0  0  0  0  0  0  0  0  0  0
    1.6140    3.8352    3.3430 C   0  0  0  0  0  0  0  0  0  0  0  0
    1.3316    4.1619    2.3478 H   0  0  0  0  0  0  0  0  0  0  0  0
    0.7535    3.9493    3.9978 H   0  0  0  0  0  0  0  0  0  0  0  0
    2.4232    4.4564    3.7170 H   0  0  0  0  0  0  0  0  0  0  0  0
    2.1813    1.8700    4.7743 C   0  0  0  0  0  0  0  0  0  0  0  0
    2.4354    0.8134    4.7818 H   0  0  0  0  0  0  0  0  0  0  0  0
    2.9343    2.4358    5.3141 H   0  0  0  0  0  0  0  0  0  0  0  0
    1.2247    1.9847    5.2788 H   0  0  0  0  0  0  0  0  0  0  0  0
    2.2782   -1.3309    0.1741 B   0  0  0  0  0  0  0  0  0  0  0  0
    3.2484   -2.0905    0.7894 O   0  0  0  0  0  0  0  0  0  0  0  0
    4.4469   -2.1035    0.0010 C   0  0  0  0  0  0  0  0  0  0  0  0
    5.4192   -1.1158    0.6539 C   0  0  0  0  0  0  0  0  0  0  0  0
    4.9335   -0.1481    0.7361 H   0  0  0  0  0  0  0  0  0  0  0  0
    5.6420   -1.4629    1.6594 H   0  0  0  0  0  0  0  0  0  0  0  0
    6.3447   -1.0379    0.0919 H   0  0  0  0  0  0  0  0  0  0  0  0
    5.0566   -3.5053    0.0256 C   0  0  0  0  0  0  0  0  0  0  0  0
    5.3636   -3.7363    1.0422 H   0  0  0  0  0  0  0  0  0  0  0  0
    5.9272   -3.5447   -0.6230 H   0  0  0  0  0  0  0  0  0  0  0  0
    4.3371   -4.2552   -0.2855 H   0  0  0  0  0  0  0  0  0  0  0  0
    3.9442   -1.6246   -1.4066 C   0  0  0  0  0  0  0  0  0  0  0  0
    2.6856   -1.0057   -1.1020 O   0  0  0  0  0  0  0  0  0  0  0  0
    4.8458   -0.6057   -2.1020 C   0  0  0  0  0  0  0  0  0  0  0  0
    5.8381   -1.0205   -2.2561 H   0  0  0  0  0  0  0  0  0  0  0  0
    4.4160   -0.3554   -3.0687 H   0  0  0  0  0  0  0  0  0  0  0  0
    4.9133    0.3044   -1.5161 H   0  0  0  0  0  0  0  0  0  0  0  0
    3.6598   -2.7812   -2.3750 C   0  0  0  0  0  0  0  0  0  0  0  0
    2.9951   -3.5053   -1.9122 H   0  0  0  0  0  0  0  0  0  0  0  0
    3.1621   -2.3815   -3.2551 H   0  0  0  0  0  0  0  0  0  0  0  0
    4.5800   -3.2702   -2.6797 H   0  0  0  0  0  0  0  0  0  0  0  0
   -3.3031   -3.3900   -3.0999 H   0  0  0  0  0  0  0  0  0  0  0  0
   -5.2141    1.2829    1.6207 H   0  0  0  0  0  0  0  0  0  0  0  0
    0.2359   -1.6814    2.9603 C   0  0  0  0  0  0  0  0  0  0  0  0
   -1.3246   -2.1039    3.6080 S   0  0  0  0  0  0  0  0  0  0  0  0
    1.1711   -1.7465    3.9504 C   0  0  0  0  0  0  0  0  0  0  0  0
   -0.6866   -2.2779    5.2017 C   0  0  0  0  0  0  0  0  0  0  0  0
    0.6627   -2.0670    5.2411 C   0  0  0  0  0  0  0  0  0  0  0  0
    2.2097   -1.5531    3.7482 H   0  0  0  0  0  0  0  0  0  0  0  0
   -1.3464   -2.5575    5.9987 H   0  0  0  0  0  0  0  0  0  0  0  0
    1.5013   -2.2080    6.4305 C   0  0  0  0  0  0  0  0  0  0  0  0
    1.0150   -1.9380    7.7080 C   0  0  0  0  0  0  0  0  0  0  0  0
    2.8229   -2.6384    6.3083 C   0  0  0  0  0  0  0  0  0  0  0  0
    1.8217   -2.0920    8.8201 C   0  0  0  0  0  0  0  0  0  0  0  0
   -0.0012   -1.5910    7.8271 H   0  0  0  0  0  0  0  0  0  0  0  0
    3.6234   -2.7899    7.4225 C   0  0  0  0  0  0  0  0  0  0  0  0
    3.2177   -2.8705    5.3305 H   0  0  0  0  0  0  0  0  0  0  0  0
    3.1379   -2.5197    8.6975 C   0  0  0  0  0  0  0  0  0  0  0  0
    1.4219   -1.8733    9.8008 H   0  0  0  0  0  0  0  0  0  0  0  0
    4.6434   -3.1287    7.3038 H   0  0  0  0  0  0  0  0  0  0  0  0
    4.0127   -2.7110    9.8999 C   0  0  0  0  0  0  0  0  0  0  0  0
    3.6131   -2.1812   10.7610 H   0  0  0  0  0  0  0  0  0  0  0  0
    5.0216   -2.3549    9.7011 H   0  0  0  0  0  0  0  0  0  0  0  0
    4.0756   -3.7708   10.1492 H   0  0  0  0  0  0  0  0  0  0  0  0
  1  2  4  0  0  0  0
  2  3  4  0  0  0  0
  3  4  4  0  0  0  0
  4  5  4  0  0  0  0
  1  6  4  0  0  0  0
  5  6  4  0  0  0  0
  6  7  1  0  0  0  0
  5  8  1  0  0  0  0
  3  9  1  0  0  0  0
  2 10  1  0  0  0  0
 10 11  4  0  0  0  0
 11 12  4  0  0  0  0
 12 13  4  0  0  0  0
 13 14  4  0  0  0  0
 10 15  4  0  0  0  0
 14 15  4  0  0  0  0
 15 16  1  0  0  0  0
 13 17  1  0  0  0  0
 12 18  1  0  0  0  0
  1 19  1  0  0  0  0
 11 19  1  0  0  0  0
 19 20  1  0  0  0  0
 19 21  1  0  0  0  0
 21 22  1  0  0  0  0
 22 23  1  0  0  0  0
 23 24  1  0  0  0  0
 24 25  1  0  0  0  0
 24 26  1  0  0  0  0
 24 27  1  0  0  0  0
 23 28  1  0  0  0  0
 28 29  1  0  0  0  0
 28 30  1  0  0  0  0
 28 31  1  0  0  0  0
 23 32  1  0  0  0  0
 21 33  1  0  0  0  0
 32 33  1  0  0  0  0
 32 34  1  0  0  0  0
 34 35  1  0  0  0  0
 34 36  1  0  0  0  0
 34 37  1  0  0  0  0
 32 38  1  0  0  0  0
 38 39  1  0  0  0  0
 38 40  1  0  0  0  0
 38 41  1  0  0  0  0
 19 42  1  0  0  0  0
 42 43  1  0  0  0  0
 43 44  1  0  0  0  0
 44 45  1  0  0  0  0
 45 46  1  0  0  0  0
 45 47  1  0  0  0  0
 45 48  1  0  0  0  0
 44 49  1  0  0  0  0
 49 50  1  0  0  0  0
 49 51  1  0  0  0  0
 49 52  1  0  0  0  0
 44 53  1  0  0  0  0
 42 54  1  0  0  0  0
 53 54  1  0  0  0  0
 53 55  1  0  0  0  0
 55 56  1  0  0  0  0
 55 57  1  0  0  0  0
 55 58  1  0  0  0  0
 53 59  1  0  0  0  0
 59 60  1  0  0  0  0
 59 61  1  0  0  0  0
 59 62  1  0  0  0  0
 19 63  1  0  0  0  0
 63 64  1  0  0  0  0
 64 65  1  0  0  0  0
 65 66  1  0  0  0  0
 66 67  1  0  0  0  0
 66 68  1  0  0  0  0
 66 69  1  0  0  0  0
 65 70  1  0  0  0  0
 70 71  1  0  0  0  0
 70 72  1  0  0  0  0
 70 73  1  0  0  0  0
 65 74  1  0  0  0  0
 63 75  1  0  0  0  0
 74 75  1  0  0  0  0
 74 76  1  0  0  0  0
 76 77  1  0  0  0  0
 76 78  1  0  0  0  0
 76 79  1  0  0  0  0
 74 80  1  0  0  0  0
 80 81  1  0  0  0  0
 80 82  1  0  0  0  0
 80 83  1  0  0  0  0
  4 84  1  0  0  0  0
 14 85  1  0  0  0  0
 19 86  1  0  0  0  0
 20 86  1  0  0  0  0
 86 87  1  0  0  0  0
 86 88  2  0  0  0  0
 87 89  1  0  0  0  0
 88 90  4  0  0  0  0
 89 90  2  0  0  0  0
 88 91  1  0  0  0  0
 89 92  1  0  0  0  0
 90 93  1  0  0  0  0
 93 94  4  0  0  0  0
 93 95  4  0  0  0  0
 94 96  4  0  0  0  0
 94 97  1  0  0  0  0
 95 98  4  0  0  0  0
 95 99  1  0  0  0  0
 96100  4  0  0  0  0
 98100  4  0  0  0  0
 96101  1  0  0  0  0
 98102  1  0  0  0  0
100103  1  0  0  0  0
103104  1  0  0  0  0
103105  1  0  0  0  0
103106  1  0  0  0  0
M  END
