
  xtb     01142213213D
 xtb: 6.4.1 (1a32961)
 15 16  0     0  0            999 V2000
    0.9098   -1.4575    0.0056 C   0  0  0  0  0  0  0  0  0  0  0  0
    2.0611   -0.6996    0.0043 C   0  0  0  0  0  0  0  0  0  0  0  0
    2.0934    0.6369    0.0021 N   0  0  0  0  0  0  0  0  0  0  0  0
    0.9609    1.3088    0.0012 C   0  0  0  0  0  0  0  0  0  0  0  0
   -0.2640    0.6528    0.0025 C   0  0  0  0  0  0  0  0  0  0  0  0
   -1.5507    1.1046    0.0021 N   0  0  0  0  0  0  0  0  0  0  0  0
   -2.3919    0.0308    0.0040 C   0  0  0  0  0  0  0  0  0  0  0  0
   -1.6780   -1.1314    0.0055 C   0  0  0  0  0  0  0  0  0  0  0  0
   -0.3048   -0.7684    0.0048 C   0  0  0  0  0  0  0  0  0  0  0  0
    0.9479   -2.5360    0.0072 H   0  0  0  0  0  0  0  0  0  0  0  0
    3.0358   -1.1706    0.0044 H   0  0  0  0  0  0  0  0  0  0  0  0
    1.0437    2.3883   -0.0004 H   0  0  0  0  0  0  0  0  0  0  0  0
   -1.8326    2.0701    0.0007 H   0  0  0  0  0  0  0  0  0  0  0  0
   -3.4560    0.1697    0.0041 H   0  0  0  0  0  0  0  0  0  0  0  0
   -2.0727   -2.1276    0.0072 H   0  0  0  0  0  0  0  0  0  0  0  0
  1  2  4  0  0  0  0
  2  3  4  0  0  0  0
  3  4  4  0  0  0  0
  4  5  4  0  0  0  0
  5  6  1  0  0  0  0
  6  7  4  0  0  0  0
  7  8  2  0  0  0  0
  1  9  4  0  0  0  0
  5  9  4  0  0  0  0
  8  9  4  0  0  0  0
  1 10  1  0  0  0  0
  2 11  1  0  0  0  0
  4 12  1  0  0  0  0
  6 13  1  0  0  0  0
  7 14  1  0  0  0  0
  8 15  1  0  0  0  0
M  END
