
  xtb     01142215153D
 xtb: 6.4.1 (1a32961)
107115  0     0  0            999 V2000
   -0.9372   -2.0167   -0.3546 N   0  0  0  0  0  0  0  0  0  0  0  0
   -2.2060   -1.5769   -0.4596 C   0  0  0  0  0  0  0  0  0  0  0  0
   -3.1161   -2.2069   -1.3193 C   0  0  0  0  0  0  0  0  0  0  0  0
   -2.7108   -3.2788   -2.0830 C   0  0  0  0  0  0  0  0  0  0  0  0
   -1.3913   -3.7126   -1.9745 C   0  0  0  0  0  0  0  0  0  0  0  0
   -0.5562   -3.0511   -1.0992 C   0  0  0  0  0  0  0  0  0  0  0  0
    0.4727   -3.3581   -0.9748 H   0  0  0  0  0  0  0  0  0  0  0  0
   -1.0293   -4.5466   -2.5534 H   0  0  0  0  0  0  0  0  0  0  0  0
   -4.1342   -1.8611   -1.3891 H   0  0  0  0  0  0  0  0  0  0  0  0
   -2.5598   -0.4225    0.3554 C   0  0  0  0  0  0  0  0  0  0  0  0
   -1.5946    0.0611    1.1663 N   0  0  0  0  0  0  0  0  0  0  0  0
   -1.8724    1.1138    1.9322 C   0  0  0  0  0  0  0  0  0  0  0  0
   -3.0973    1.7482    1.9405 C   0  0  0  0  0  0  0  0  0  0  0  0
   -4.0996    1.2706    1.0989 C   0  0  0  0  0  0  0  0  0  0  0  0
   -3.8230    0.1810    0.3025 C   0  0  0  0  0  0  0  0  0  0  0  0
   -4.5846   -0.1983   -0.3584 H   0  0  0  0  0  0  0  0  0  0  0  0
   -3.2692    2.5917    2.5896 H   0  0  0  0  0  0  0  0  0  0  0  0
   -1.0617    1.4526    2.5587 H   0  0  0  0  0  0  0  0  0  0  0  0
    0.4215   -0.8165    0.9133 Ir  0  0  0  0  0  0  0  0  0  0  0  0
    0.8726   -2.2303    1.5405 H   0  0  0  0  0  0  0  0  0  0  0  0
    0.3343    0.6609   -0.5613 B   0  0  0  0  0  0  0  0  0  0  0  0
   -0.3568    0.4104   -1.7339 O   0  0  0  0  0  0  0  0  0  0  0  0
   -0.5236    1.6247   -2.4734 C   0  0  0  0  0  0  0  0  0  0  0  0
   -0.3431    1.3502   -3.9642 C   0  0  0  0  0  0  0  0  0  0  0  0
    0.5836    0.8164   -4.1472 H   0  0  0  0  0  0  0  0  0  0  0  0
   -0.3431    2.2852   -4.5186 H   0  0  0  0  0  0  0  0  0  0  0  0
   -1.1662    0.7331   -4.3164 H   0  0  0  0  0  0  0  0  0  0  0  0
   -1.9572    2.1137   -2.2201 C   0  0  0  0  0  0  0  0  0  0  0  0
   -2.1752    3.0071   -2.7978 H   0  0  0  0  0  0  0  0  0  0  0  0
   -2.6501    1.3259   -2.5098 H   0  0  0  0  0  0  0  0  0  0  0  0
   -2.1026    2.3174   -1.1611 H   0  0  0  0  0  0  0  0  0  0  0  0
    0.5541    2.5612   -1.8362 C   0  0  0  0  0  0  0  0  0  0  0  0
    0.7473    1.9742   -0.5420 O   0  0  0  0  0  0  0  0  0  0  0  0
    1.9021    2.4816   -2.5632 C   0  0  0  0  0  0  0  0  0  0  0  0
    2.2261    1.4442   -2.5999 H   0  0  0  0  0  0  0  0  0  0  0  0
    1.8383    2.8982   -3.5643 H   0  0  0  0  0  0  0  0  0  0  0  0
    2.6403    3.0402   -1.9926 H   0  0  0  0  0  0  0  0  0  0  0  0
    0.1360    4.0230   -1.6914 C   0  0  0  0  0  0  0  0  0  0  0  0
   -0.7101    4.1260   -1.0190 H   0  0  0  0  0  0  0  0  0  0  0  0
    0.9663    4.5925   -1.2805 H   0  0  0  0  0  0  0  0  0  0  0  0
   -0.1221    4.4339   -2.6641 H   0  0  0  0  0  0  0  0  0  0  0  0
    1.5778    0.6478    1.8602 B   0  0  0  0  0  0  0  0  0  0  0  0
    2.9286    0.8720    1.7426 O   0  0  0  0  0  0  0  0  0  0  0  0
    3.2902    2.1116    2.3655 C   0  0  0  0  0  0  0  0  0  0  0  0
    4.5960    1.9303    3.1391 C   0  0  0  0  0  0  0  0  0  0  0  0
    4.5225    1.0970    3.8298 H   0  0  0  0  0  0  0  0  0  0  0  0
    5.3980    1.7190    2.4363 H   0  0  0  0  0  0  0  0  0  0  0  0
    4.8393    2.8379    3.6845 H   0  0  0  0  0  0  0  0  0  0  0  0
    3.5039    3.1227    1.2326 C   0  0  0  0  0  0  0  0  0  0  0  0
    3.7544    4.1070    1.6167 H   0  0  0  0  0  0  0  0  0  0  0  0
    4.3181    2.7703    0.6033 H   0  0  0  0  0  0  0  0  0  0  0  0
    2.6051    3.1657    0.6234 H   0  0  0  0  0  0  0  0  0  0  0  0
    2.0384    2.4375    3.2538 C   0  0  0  0  0  0  0  0  0  0  0  0
    1.0269    1.5800    2.7106 O   0  0  0  0  0  0  0  0  0  0  0  0
    1.5549    3.8858    3.1749 C   0  0  0  0  0  0  0  0  0  0  0  0
    1.2479    4.1329    2.1641 H   0  0  0  0  0  0  0  0  0  0  0  0
    0.6968    4.0071    3.8315 H   0  0  0  0  0  0  0  0  0  0  0  0
    2.3401    4.5638    3.4978 H   0  0  0  0  0  0  0  0  0  0  0  0
    2.2181    2.0538    4.7279 C   0  0  0  0  0  0  0  0  0  0  0  0
    2.5074    1.0104    4.8148 H   0  0  0  0  0  0  0  0  0  0  0  0
    2.9607    2.6841    5.2072 H   0  0  0  0  0  0  0  0  0  0  0  0
    1.2668    2.1772    5.2402 H   0  0  0  0  0  0  0  0  0  0  0  0
    2.2782   -1.3309    0.1741 B   0  0  0  0  0  0  0  0  0  0  0  0
    3.1834   -2.2462    0.6696 O   0  0  0  0  0  0  0  0  0  0  0  0
    4.4154   -2.1764   -0.0614 C   0  0  0  0  0  0  0  0  0  0  0  0
    5.3897   -1.3668    0.8012 C   0  0  0  0  0  0  0  0  0  0  0  0
    4.9414   -0.4038    1.0301 H   0  0  0  0  0  0  0  0  0  0  0  0
    5.5449   -1.8980    1.7373 H   0  0  0  0  0  0  0  0  0  0  0  0
    6.3467   -1.2368    0.3058 H   0  0  0  0  0  0  0  0  0  0  0  0
    4.9672   -3.5867   -0.2653 C   0  0  0  0  0  0  0  0  0  0  0  0
    5.2165   -4.0099    0.7042 H   0  0  0  0  0  0  0  0  0  0  0  0
    5.8649   -3.5507   -0.8762 H   0  0  0  0  0  0  0  0  0  0  0  0
    4.2341   -4.2336   -0.7354 H   0  0  0  0  0  0  0  0  0  0  0  0
    3.9971   -1.4295   -1.3760 C   0  0  0  0  0  0  0  0  0  0  0  0
    2.7551   -0.8120   -1.0090 O   0  0  0  0  0  0  0  0  0  0  0  0
    4.9744   -0.3508   -1.8402 C   0  0  0  0  0  0  0  0  0  0  0  0
    5.9562   -0.7800   -2.0196 H   0  0  0  0  0  0  0  0  0  0  0  0
    4.6077    0.0853   -2.7660 H   0  0  0  0  0  0  0  0  0  0  0  0
    5.0453    0.4386   -1.0999 H   0  0  0  0  0  0  0  0  0  0  0  0
    3.7044   -2.3785   -2.5463 C   0  0  0  0  0  0  0  0  0  0  0  0
    2.9830   -3.1339   -2.2473 H   0  0  0  0  0  0  0  0  0  0  0  0
    3.2675   -1.8023   -3.3584 H   0  0  0  0  0  0  0  0  0  0  0  0
    4.6132   -2.8560   -2.8997 H   0  0  0  0  0  0  0  0  0  0  0  0
   -3.4016   -3.7704   -2.7512 H   0  0  0  0  0  0  0  0  0  0  0  0
   -5.0708    1.7412    1.0701 H   0  0  0  0  0  0  0  0  0  0  0  0
    0.2359   -1.6814    2.9603 C   0  0  0  0  0  0  0  0  0  0  0  0
   -1.0659   -1.9693    3.2996 C   0  0  0  0  0  0  0  0  0  0  0  0
    1.2010   -1.6408    3.9999 C   0  0  0  0  0  0  0  0  0  0  0  0
   -1.4987   -2.0572    4.6380 C   0  0  0  0  0  0  0  0  0  0  0  0
   -1.8119   -2.1350    2.5340 H   0  0  0  0  0  0  0  0  0  0  0  0
    0.7753   -1.7244    5.3584 C   0  0  0  0  0  0  0  0  0  0  0  0
    2.5936   -1.5858    3.7818 C   0  0  0  0  0  0  0  0  0  0  0  0
   -2.9484   -2.3243    4.9164 C   0  0  0  0  0  0  0  0  0  0  0  0
   -0.5900   -1.9038    5.6518 C   0  0  0  0  0  0  0  0  0  0  0  0
    1.6416   -1.6782    6.3930 N   0  0  0  0  0  0  0  0  0  0  0  0
    3.4499   -1.5714    4.8496 C   0  0  0  0  0  0  0  0  0  0  0  0
    2.9557   -1.5738    2.7677 H   0  0  0  0  0  0  0  0  0  0  0  0
   -3.5661   -1.5291    4.5005 H   0  0  0  0  0  0  0  0  0  0  0  0
   -3.1318   -2.3862    5.9857 H   0  0  0  0  0  0  0  0  0  0  0  0
   -3.2543   -3.2616    4.4528 H   0  0  0  0  0  0  0  0  0  0  0  0
   -0.8828   -1.9571    6.6892 H   0  0  0  0  0  0  0  0  0  0  0  0
    2.9265   -1.5975    6.1599 C   0  0  0  0  0  0  0  0  0  0  0  0
    4.5204   -1.5443    4.7069 H   0  0  0  0  0  0  0  0  0  0  0  0
    3.8445   -1.5605    7.3432 C   0  0  0  0  0  0  0  0  0  0  0  0
    3.2614   -1.5506    8.2588 H   0  0  0  0  0  0  0  0  0  0  0  0
    4.4758   -0.6748    7.3035 H   0  0  0  0  0  0  0  0  0  0  0  0
    4.4908   -2.4369    7.3381 H   0  0  0  0  0  0  0  0  0  0  0  0
  1  2  4  0  0  0  0
  2  3  4  0  0  0  0
  3  4  4  0  0  0  0
  4  5  4  0  0  0  0
  1  6  4  0  0  0  0
  5  6  4  0  0  0  0
  6  7  1  0  0  0  0
  5  8  1  0  0  0  0
  3  9  1  0  0  0  0
  2 10  1  0  0  0  0
 10 11  4  0  0  0  0
 11 12  4  0  0  0  0
 12 13  4  0  0  0  0
 13 14  4  0  0  0  0
 10 15  4  0  0  0  0
 14 15  4  0  0  0  0
 15 16  1  0  0  0  0
 13 17  1  0  0  0  0
 12 18  1  0  0  0  0
  1 19  1  0  0  0  0
 11 19  1  0  0  0  0
 19 20  1  0  0  0  0
 19 21  1  0  0  0  0
 21 22  1  0  0  0  0
 22 23  1  0  0  0  0
 23 24  1  0  0  0  0
 24 25  1  0  0  0  0
 24 26  1  0  0  0  0
 24 27  1  0  0  0  0
 23 28  1  0  0  0  0
 28 29  1  0  0  0  0
 28 30  1  0  0  0  0
 28 31  1  0  0  0  0
 23 32  1  0  0  0  0
 21 33  1  0  0  0  0
 32 33  1  0  0  0  0
 32 34  1  0  0  0  0
 34 35  1  0  0  0  0
 34 36  1  0  0  0  0
 34 37  1  0  0  0  0
 32 38  1  0  0  0  0
 38 39  1  0  0  0  0
 38 40  1  0  0  0  0
 38 41  1  0  0  0  0
 19 42  1  0  0  0  0
 42 43  1  0  0  0  0
 43 44  1  0  0  0  0
 44 45  1  0  0  0  0
 45 46  1  0  0  0  0
 45 47  1  0  0  0  0
 45 48  1  0  0  0  0
 44 49  1  0  0  0  0
 49 50  1  0  0  0  0
 49 51  1  0  0  0  0
 49 52  1  0  0  0  0
 44 53  1  0  0  0  0
 42 54  1  0  0  0  0
 53 54  1  0  0  0  0
 53 55  1  0  0  0  0
 55 56  1  0  0  0  0
 55 57  1  0  0  0  0
 55 58  1  0  0  0  0
 53 59  1  0  0  0  0
 59 60  1  0  0  0  0
 59 61  1  0  0  0  0
 59 62  1  0  0  0  0
 19 63  1  0  0  0  0
 63 64  1  0  0  0  0
 64 65  1  0  0  0  0
 65 66  1  0  0  0  0
 66 67  1  0  0  0  0
 66 68  1  0  0  0  0
 66 69  1  0  0  0  0
 65 70  1  0  0  0  0
 70 71  1  0  0  0  0
 70 72  1  0  0  0  0
 70 73  1  0  0  0  0
 65 74  1  0  0  0  0
 63 75  1  0  0  0  0
 74 75  1  0  0  0  0
 74 76  1  0  0  0  0
 76 77  1  0  0  0  0
 76 78  1  0  0  0  0
 76 79  1  0  0  0  0
 74 80  1  0  0  0  0
 80 81  1  0  0  0  0
 80 82  1  0  0  0  0
 80 83  1  0  0  0  0
  4 84  1  0  0  0  0
 14 85  1  0  0  0  0
 19 86  1  0  0  0  0
 20 86  1  0  0  0  0
 86 87  4  0  0  0  0
 86 88  4  0  0  0  0
 87 89  4  0  0  0  0
 87 90  1  0  0  0  0
 88 91  4  0  0  0  0
 88 92  4  0  0  0  0
 89 93  1  0  0  0  0
 89 94  2  0  0  0  0
 91 94  4  0  0  0  0
 91 95  4  0  0  0  0
 92 96  2  0  0  0  0
 92 97  1  0  0  0  0
 93 98  1  0  0  0  0
 93 99  1  0  0  0  0
 93100  1  0  0  0  0
 94101  1  0  0  0  0
 95102  2  0  0  0  0
 96102  4  0  0  0  0
 96103  1  0  0  0  0
102104  1  0  0  0  0
104105  1  0  0  0  0
104106  1  0  0  0  0
104107  1  0  0  0  0
M  END
