
  xtb     01142213303D
 xtb: 6.4.1 (1a32961)
 99106  0     0  0            999 V2000
   -0.9076   -1.9345   -0.5045 N   0  0  0  0  0  0  0  0  0  0  0  0
   -2.1109   -1.3636   -0.7135 C   0  0  0  0  0  0  0  0  0  0  0  0
   -2.9153   -1.7576   -1.7895 C   0  0  0  0  0  0  0  0  0  0  0  0
   -2.4818   -2.7462   -2.6454 C   0  0  0  0  0  0  0  0  0  0  0  0
   -1.2384   -3.3299   -2.4147 C   0  0  0  0  0  0  0  0  0  0  0  0
   -0.4978   -2.8840   -1.3405 C   0  0  0  0  0  0  0  0  0  0  0  0
    0.4728   -3.3069   -1.1219 H   0  0  0  0  0  0  0  0  0  0  0  0
   -0.8604   -4.1087   -3.0570 H   0  0  0  0  0  0  0  0  0  0  0  0
   -3.8700   -1.2884   -1.9622 H   0  0  0  0  0  0  0  0  0  0  0  0
   -2.5045   -0.3280    0.2329 C   0  0  0  0  0  0  0  0  0  0  0  0
   -1.5880    0.0203    1.1632 N   0  0  0  0  0  0  0  0  0  0  0  0
   -1.9156    0.9413    2.0666 C   0  0  0  0  0  0  0  0  0  0  0  0
   -3.1374    1.5813    2.0960 C   0  0  0  0  0  0  0  0  0  0  0  0
   -4.0855    1.2486    1.1314 C   0  0  0  0  0  0  0  0  0  0  0  0
   -3.7626    0.2857    0.1997 C   0  0  0  0  0  0  0  0  0  0  0  0
   -4.4894    0.0040   -0.5442 H   0  0  0  0  0  0  0  0  0  0  0  0
   -3.3492    2.3164    2.8556 H   0  0  0  0  0  0  0  0  0  0  0  0
   -1.1492    1.1720    2.7900 H   0  0  0  0  0  0  0  0  0  0  0  0
    0.4215   -0.8165    0.9133 Ir  0  0  0  0  0  0  0  0  0  0  0  0
    0.8726   -2.2303    1.5405 H   0  0  0  0  0  0  0  0  0  0  0  0
    0.4696    0.6437   -0.5946 B   0  0  0  0  0  0  0  0  0  0  0  0
   -0.2630    0.4475   -1.7532 O   0  0  0  0  0  0  0  0  0  0  0  0
   -0.2586    1.6370   -2.5479 C   0  0  0  0  0  0  0  0  0  0  0  0
   -0.1391    1.2692   -4.0247 C   0  0  0  0  0  0  0  0  0  0  0  0
    0.7062    0.6096   -4.1904 H   0  0  0  0  0  0  0  0  0  0  0  0
   -0.0248    2.1676   -4.6258 H   0  0  0  0  0  0  0  0  0  0  0  0
   -1.0421    0.7496   -4.3363 H   0  0  0  0  0  0  0  0  0  0  0  0
   -1.6029    2.3400   -2.3093 C   0  0  0  0  0  0  0  0  0  0  0  0
   -1.6919    3.2357   -2.9169 H   0  0  0  0  0  0  0  0  0  0  0  0
   -2.4050    1.6525   -2.5703 H   0  0  0  0  0  0  0  0  0  0  0  0
   -1.7082    2.5960   -1.2570 H   0  0  0  0  0  0  0  0  0  0  0  0
    0.9533    2.4322   -1.9622 C   0  0  0  0  0  0  0  0  0  0  0  0
    1.0790    1.8774   -0.6461 O   0  0  0  0  0  0  0  0  0  0  0  0
    2.2643    2.1279   -2.6974 C   0  0  0  0  0  0  0  0  0  0  0  0
    2.4372    1.0545   -2.6855 H   0  0  0  0  0  0  0  0  0  0  0  0
    2.2440    2.5019   -3.7169 H   0  0  0  0  0  0  0  0  0  0  0  0
    3.0841    2.6020   -2.1624 H   0  0  0  0  0  0  0  0  0  0  0  0
    0.7536    3.9444   -1.8772 C   0  0  0  0  0  0  0  0  0  0  0  0
   -0.0575    4.1967   -1.2009 H   0  0  0  0  0  0  0  0  0  0  0  0
    1.6646    4.4043   -1.5014 H   0  0  0  0  0  0  0  0  0  0  0  0
    0.5413    4.3474   -2.8644 H   0  0  0  0  0  0  0  0  0  0  0  0
    1.5453    0.6932    1.8140 B   0  0  0  0  0  0  0  0  0  0  0  0
    2.9116    0.8123    1.8681 O   0  0  0  0  0  0  0  0  0  0  0  0
    3.2870    2.0972    2.3807 C   0  0  0  0  0  0  0  0  0  0  0  0
    4.4382    1.9314    3.3735 C   0  0  0  0  0  0  0  0  0  0  0  0
    4.1797    1.2291    4.1587 H   0  0  0  0  0  0  0  0  0  0  0  0
    5.3054    1.5418    2.8463 H   0  0  0  0  0  0  0  0  0  0  0  0
    4.6964    2.8913    3.8123 H   0  0  0  0  0  0  0  0  0  0  0  0
    3.7688    2.9230    1.1816 C   0  0  0  0  0  0  0  0  0  0  0  0
    4.0357    3.9345    1.4727 H   0  0  0  0  0  0  0  0  0  0  0  0
    4.6437    2.4373    0.7549 H   0  0  0  0  0  0  0  0  0  0  0  0
    2.9881    2.9347    0.4263 H   0  0  0  0  0  0  0  0  0  0  0  0
    1.9482    2.6328    3.0043 C   0  0  0  0  0  0  0  0  0  0  0  0
    0.9561    1.7684    2.4367 O   0  0  0  0  0  0  0  0  0  0  0  0
    1.6094    4.0787    2.6421 C   0  0  0  0  0  0  0  0  0  0  0  0
    1.4861    4.1810    1.5692 H   0  0  0  0  0  0  0  0  0  0  0  0
    0.6723    4.3536    3.1199 H   0  0  0  0  0  0  0  0  0  0  0  0
    2.3902    4.7493    2.9903 H   0  0  0  0  0  0  0  0  0  0  0  0
    1.8742    2.4647    4.5275 C   0  0  0  0  0  0  0  0  0  0  0  0
    2.0246    1.4226    4.7948 H   0  0  0  0  0  0  0  0  0  0  0  0
    2.6099    3.0878    5.0264 H   0  0  0  0  0  0  0  0  0  0  0  0
    0.8811    2.7549    4.8626 H   0  0  0  0  0  0  0  0  0  0  0  0
    2.2782   -1.3309    0.1741 B   0  0  0  0  0  0  0  0  0  0  0  0
    3.1812   -2.1504    0.8181 O   0  0  0  0  0  0  0  0  0  0  0  0
    4.4238   -2.1859    0.1085 C   0  0  0  0  0  0  0  0  0  0  0  0
    5.3870   -1.2595    0.8585 C   0  0  0  0  0  0  0  0  0  0  0  0
    4.9351   -0.2755    0.9414 H   0  0  0  0  0  0  0  0  0  0  0  0
    5.5230   -1.6486    1.8645 H   0  0  0  0  0  0  0  0  0  0  0  0
    6.3527   -1.2015    0.3657 H   0  0  0  0  0  0  0  0  0  0  0  0
    4.9784   -3.6107    0.1259 C   0  0  0  0  0  0  0  0  0  0  0  0
    5.2017   -3.8847    1.1536 H   0  0  0  0  0  0  0  0  0  0  0  0
    5.8914   -3.6646   -0.4605 H   0  0  0  0  0  0  0  0  0  0  0  0
    4.2558   -4.3219   -0.2601 H   0  0  0  0  0  0  0  0  0  0  0  0
    4.0270   -1.6437   -1.3096 C   0  0  0  0  0  0  0  0  0  0  0  0
    2.7763   -0.9819   -1.0633 O   0  0  0  0  0  0  0  0  0  0  0  0
    5.0157   -0.6478   -1.9134 C   0  0  0  0  0  0  0  0  0  0  0  0
    5.9991   -1.1012   -2.0028 H   0  0  0  0  0  0  0  0  0  0  0  0
    4.6723   -0.3588   -2.9037 H   0  0  0  0  0  0  0  0  0  0  0  0
    5.0764    0.2456   -1.3016 H   0  0  0  0  0  0  0  0  0  0  0  0
    3.7566   -2.7597   -2.3281 C   0  0  0  0  0  0  0  0  0  0  0  0
    3.0314   -3.4638   -1.9296 H   0  0  0  0  0  0  0  0  0  0  0  0
    3.3360   -2.3161   -3.2274 H   0  0  0  0  0  0  0  0  0  0  0  0
    4.6727   -3.2823   -2.5862 H   0  0  0  0  0  0  0  0  0  0  0  0
   -3.0933   -3.0592   -3.4783 H   0  0  0  0  0  0  0  0  0  0  0  0
   -5.0532    1.7269    1.1163 H   0  0  0  0  0  0  0  0  0  0  0  0
    0.2359   -1.6814    2.9603 C   0  0  0  0  0  0  0  0  0  0  0  0
   -0.9765   -2.1974    3.4257 C   0  0  0  0  0  0  0  0  0  0  0  0
    1.2074   -1.3335    3.9009 C   0  0  0  0  0  0  0  0  0  0  0  0
   -2.0158   -2.8004    2.5238 C   0  0  0  0  0  0  0  0  0  0  0  0
   -1.2398   -2.1921    4.7947 C   0  0  0  0  0  0  0  0  0  0  0  0
    0.9404   -1.3480    5.2582 C   0  0  0  0  0  0  0  0  0  0  0  0
    2.1903   -1.0561    3.5531 H   0  0  0  0  0  0  0  0  0  0  0  0
   -2.4172   -3.7075    2.9743 H   0  0  0  0  0  0  0  0  0  0  0  0
   -1.5910   -3.0477    1.5557 H   0  0  0  0  0  0  0  0  0  0  0  0
   -2.8470   -2.1114    2.3717 H   0  0  0  0  0  0  0  0  0  0  0  0
   -0.3059   -1.7502    5.7106 C   0  0  0  0  0  0  0  0  0  0  0  0
   -2.1963   -2.5605    5.1422 H   0  0  0  0  0  0  0  0  0  0  0  0
    1.7046   -1.0581    5.9662 H   0  0  0  0  0  0  0  0  0  0  0  0
   -0.5340   -1.7522    6.7670 H   0  0  0  0  0  0  0  0  0  0  0  0
  1  2  4  0  0  0  0
  2  3  4  0  0  0  0
  3  4  4  0  0  0  0
  4  5  4  0  0  0  0
  1  6  4  0  0  0  0
  5  6  4  0  0  0  0
  6  7  1  0  0  0  0
  5  8  1  0  0  0  0
  3  9  1  0  0  0  0
  2 10  1  0  0  0  0
 10 11  4  0  0  0  0
 11 12  4  0  0  0  0
 12 13  4  0  0  0  0
 13 14  4  0  0  0  0
 10 15  4  0  0  0  0
 14 15  4  0  0  0  0
 15 16  1  0  0  0  0
 13 17  1  0  0  0  0
 12 18  1  0  0  0  0
  1 19  1  0  0  0  0
 11 19  1  0  0  0  0
 19 20  1  0  0  0  0
 19 21  1  0  0  0  0
 21 22  1  0  0  0  0
 22 23  1  0  0  0  0
 23 24  1  0  0  0  0
 24 25  1  0  0  0  0
 24 26  1  0  0  0  0
 24 27  1  0  0  0  0
 23 28  1  0  0  0  0
 28 29  1  0  0  0  0
 28 30  1  0  0  0  0
 28 31  1  0  0  0  0
 23 32  1  0  0  0  0
 21 33  1  0  0  0  0
 32 33  1  0  0  0  0
 32 34  1  0  0  0  0
 34 35  1  0  0  0  0
 34 36  1  0  0  0  0
 34 37  1  0  0  0  0
 32 38  1  0  0  0  0
 38 39  1  0  0  0  0
 38 40  1  0  0  0  0
 38 41  1  0  0  0  0
 19 42  1  0  0  0  0
 42 43  1  0  0  0  0
 43 44  1  0  0  0  0
 44 45  1  0  0  0  0
 45 46  1  0  0  0  0
 45 47  1  0  0  0  0
 45 48  1  0  0  0  0
 44 49  1  0  0  0  0
 49 50  1  0  0  0  0
 49 51  1  0  0  0  0
 49 52  1  0  0  0  0
 44 53  1  0  0  0  0
 42 54  1  0  0  0  0
 53 54  1  0  0  0  0
 53 55  1  0  0  0  0
 55 56  1  0  0  0  0
 55 57  1  0  0  0  0
 55 58  1  0  0  0  0
 53 59  1  0  0  0  0
 59 60  1  0  0  0  0
 59 61  1  0  0  0  0
 59 62  1  0  0  0  0
 19 63  1  0  0  0  0
 63 64  1  0  0  0  0
 64 65  1  0  0  0  0
 65 66  1  0  0  0  0
 66 67  1  0  0  0  0
 66 68  1  0  0  0  0
 66 69  1  0  0  0  0
 65 70  1  0  0  0  0
 70 71  1  0  0  0  0
 70 72  1  0  0  0  0
 70 73  1  0  0  0  0
 65 74  1  0  0  0  0
 63 75  1  0  0  0  0
 74 75  1  0  0  0  0
 74 76  1  0  0  0  0
 76 77  1  0  0  0  0
 76 78  1  0  0  0  0
 76 79  1  0  0  0  0
 74 80  1  0  0  0  0
 80 81  1  0  0  0  0
 80 82  1  0  0  0  0
 80 83  1  0  0  0  0
  4 84  1  0  0  0  0
 14 85  1  0  0  0  0
 19 86  1  0  0  0  0
 20 86  1  0  0  0  0
 86 87  4  0  0  0  0
 86 88  4  0  0  0  0
 87 89  1  0  0  0  0
 87 90  4  0  0  0  0
 88 91  4  0  0  0  0
 88 92  1  0  0  0  0
 89 93  1  0  0  0  0
 89 94  1  0  0  0  0
 89 95  1  0  0  0  0
 90 96  4  0  0  0  0
 91 96  4  0  0  0  0
 90 97  1  0  0  0  0
 91 98  1  0  0  0  0
 96 99  1  0  0  0  0
M  END
