   11
Created with kallisto
C      3.6014    0.0217   -0.0151
C      2.9213   -1.1961   -0.0041
C      2.8880    1.2204   -0.0051
C      1.5253   -1.2178    0.0135
H      3.4783   -2.1295   -0.0102
C      1.4922    1.2034    0.0126
H      3.4194    2.1690   -0.0126
C      0.8157   -0.0164    0.0188
H      1.0085   -2.1735    0.0210
H      0.9493    2.1451    0.0191
I     -1.2630   -0.0448    0.0298
