
  xtb     01142215303D
 xtb: 6.4.1 (1a32961)
 95102  0     0  0            999 V2000
   -0.9246   -2.0360   -0.3620 N   0  0  0  0  0  0  0  0  0  0  0  0
   -2.1744   -1.5690   -0.5114 C   0  0  0  0  0  0  0  0  0  0  0  0
   -3.0698   -2.1859   -1.3927 C   0  0  0  0  0  0  0  0  0  0  0  0
   -2.6686   -3.2868   -2.1195 C   0  0  0  0  0  0  0  0  0  0  0  0
   -1.3707   -3.7580   -1.9533 C   0  0  0  0  0  0  0  0  0  0  0  0
   -0.5454   -3.0964   -1.0666 C   0  0  0  0  0  0  0  0  0  0  0  0
    0.4708   -3.4260   -0.9020 H   0  0  0  0  0  0  0  0  0  0  0  0
   -1.0143   -4.6176   -2.4970 H   0  0  0  0  0  0  0  0  0  0  0  0
   -4.0734   -1.8128   -1.5093 H   0  0  0  0  0  0  0  0  0  0  0  0
   -2.5359   -0.4041    0.2938 C   0  0  0  0  0  0  0  0  0  0  0  0
   -1.5886    0.0816    1.1195 N   0  0  0  0  0  0  0  0  0  0  0  0
   -1.8833    1.1250    1.8898 C   0  0  0  0  0  0  0  0  0  0  0  0
   -3.1149    1.7500    1.8878 C   0  0  0  0  0  0  0  0  0  0  0  0
   -4.0981    1.2724    1.0289 C   0  0  0  0  0  0  0  0  0  0  0  0
   -3.8007    0.1899    0.2272 C   0  0  0  0  0  0  0  0  0  0  0  0
   -4.5513   -0.1917   -0.4440 H   0  0  0  0  0  0  0  0  0  0  0  0
   -3.3012    2.5860    2.5422 H   0  0  0  0  0  0  0  0  0  0  0  0
   -1.0823    1.4703    2.5257 H   0  0  0  0  0  0  0  0  0  0  0  0
    0.4215   -0.8165    0.9133 Ir  0  0  0  0  0  0  0  0  0  0  0  0
    0.8726   -2.2303    1.5405 H   0  0  0  0  0  0  0  0  0  0  0  0
    0.4262    0.5755   -0.6344 B   0  0  0  0  0  0  0  0  0  0  0  0
   -0.1684    0.2628   -1.8400 O   0  0  0  0  0  0  0  0  0  0  0  0
   -0.2442    1.4316   -2.6657 C   0  0  0  0  0  0  0  0  0  0  0  0
    0.0756    1.0596   -4.1111 C   0  0  0  0  0  0  0  0  0  0  0  0
    1.0109    0.5129   -4.1674 H   0  0  0  0  0  0  0  0  0  0  0  0
    0.1367    1.9554   -4.7233 H   0  0  0  0  0  0  0  0  0  0  0  0
   -0.7152    0.4222   -4.4989 H   0  0  0  0  0  0  0  0  0  0  0  0
   -1.6886    1.9446   -2.5811 C   0  0  0  0  0  0  0  0  0  0  0  0
   -1.8363    2.8086   -3.2219 H   0  0  0  0  0  0  0  0  0  0  0  0
   -2.3586    1.1479   -2.8982 H   0  0  0  0  0  0  0  0  0  0  0  0
   -1.9351    2.2024   -1.5530 H   0  0  0  0  0  0  0  0  0  0  0  0
    0.7844    2.3957   -1.9869 C   0  0  0  0  0  0  0  0  0  0  0  0
    0.8585    1.8792   -0.6491 O   0  0  0  0  0  0  0  0  0  0  0  0
    2.1907    2.2677   -2.5842 C   0  0  0  0  0  0  0  0  0  0  0  0
    2.5099    1.2304   -2.5199 H   0  0  0  0  0  0  0  0  0  0  0  0
    2.2190    2.6158   -3.6125 H   0  0  0  0  0  0  0  0  0  0  0  0
    2.8778    2.8645   -1.9892 H   0  0  0  0  0  0  0  0  0  0  0  0
    0.3713    3.8655   -1.9575 C   0  0  0  0  0  0  0  0  0  0  0  0
   -0.5377    4.0096   -1.3821 H   0  0  0  0  0  0  0  0  0  0  0  0
    1.1626    4.4479   -1.4918 H   0  0  0  0  0  0  0  0  0  0  0  0
    0.2202    4.2286   -2.9708 H   0  0  0  0  0  0  0  0  0  0  0  0
    1.5785    0.6380    1.8669 B   0  0  0  0  0  0  0  0  0  0  0  0
    2.9455    0.7548    1.8932 O   0  0  0  0  0  0  0  0  0  0  0  0
    3.3192    2.0321    2.4347 C   0  0  0  0  0  0  0  0  0  0  0  0
    4.5582    1.8809    3.3151 C   0  0  0  0  0  0  0  0  0  0  0  0
    4.4145    1.1135    4.0683 H   0  0  0  0  0  0  0  0  0  0  0  0
    5.4029    1.5925    2.6949 H   0  0  0  0  0  0  0  0  0  0  0  0
    4.7874    2.8263    3.7990 H   0  0  0  0  0  0  0  0  0  0  0  0
    3.6452    2.9300    1.2359 C   0  0  0  0  0  0  0  0  0  0  0  0
    3.9254    3.9307    1.5507 H   0  0  0  0  0  0  0  0  0  0  0  0
    4.4720    2.4869    0.6857 H   0  0  0  0  0  0  0  0  0  0  0  0
    2.7828    2.9620    0.5751 H   0  0  0  0  0  0  0  0  0  0  0  0
    2.0212    2.4781    3.1912 C   0  0  0  0  0  0  0  0  0  0  0  0
    1.0076    1.6612    2.5861 O   0  0  0  0  0  0  0  0  0  0  0  0
    1.6491    3.9492    3.0170 C   0  0  0  0  0  0  0  0  0  0  0  0
    1.4352    4.1681    1.9764 H   0  0  0  0  0  0  0  0  0  0  0  0
    0.7569    4.1617    3.6008 H   0  0  0  0  0  0  0  0  0  0  0  0
    2.4569    4.5849    3.3688 H   0  0  0  0  0  0  0  0  0  0  0  0
    2.0450    2.1362    4.6862 C   0  0  0  0  0  0  0  0  0  0  0  0
    2.2680    1.0823    4.8268 H   0  0  0  0  0  0  0  0  0  0  0  0
    2.7737    2.7442    5.2131 H   0  0  0  0  0  0  0  0  0  0  0  0
    1.0589    2.3259    5.1037 H   0  0  0  0  0  0  0  0  0  0  0  0
    2.2782   -1.3309    0.1741 B   0  0  0  0  0  0  0  0  0  0  0  0
    3.0839   -2.3064    0.7211 O   0  0  0  0  0  0  0  0  0  0  0  0
    4.3773   -2.2913    0.1001 C   0  0  0  0  0  0  0  0  0  0  0  0
    5.3185   -1.5775    1.0760 C   0  0  0  0  0  0  0  0  0  0  0  0
    4.9067   -0.6001    1.3103 H   0  0  0  0  0  0  0  0  0  0  0  0
    5.3598   -2.1538    1.9967 H   0  0  0  0  0  0  0  0  0  0  0  0
    6.3209   -1.4868    0.6698 H   0  0  0  0  0  0  0  0  0  0  0  0
    4.8567   -3.7272   -0.1100 C   0  0  0  0  0  0  0  0  0  0  0  0
    4.9780   -4.2005    0.8608 H   0  0  0  0  0  0  0  0  0  0  0  0
    5.8128   -3.7305   -0.6256 H   0  0  0  0  0  0  0  0  0  0  0  0
    4.1367   -4.3066   -0.6780 H   0  0  0  0  0  0  0  0  0  0  0  0
    4.1198   -1.4757   -1.2161 C   0  0  0  0  0  0  0  0  0  0  0  0
    2.8793   -0.8033   -0.9406 O   0  0  0  0  0  0  0  0  0  0  0  0
    5.1890   -0.4353   -1.5434 C   0  0  0  0  0  0  0  0  0  0  0  0
    6.1587   -0.9125   -1.6537 H   0  0  0  0  0  0  0  0  0  0  0  0
    4.9322    0.0580   -2.4772 H   0  0  0  0  0  0  0  0  0  0  0  0
    5.2346    0.3171   -0.7640 H   0  0  0  0  0  0  0  0  0  0  0  0
    3.8877   -2.3636   -2.4458 C   0  0  0  0  0  0  0  0  0  0  0  0
    3.0971   -3.0820   -2.2475 H   0  0  0  0  0  0  0  0  0  0  0  0
    3.5676   -1.7345   -3.2727 H   0  0  0  0  0  0  0  0  0  0  0  0
    4.7973   -2.8842   -2.7292 H   0  0  0  0  0  0  0  0  0  0  0  0
   -3.3501   -3.7712   -2.8020 H   0  0  0  0  0  0  0  0  0  0  0  0
   -5.0732    1.7336    0.9896 H   0  0  0  0  0  0  0  0  0  0  0  0
    0.2359   -1.6814    2.9603 C   0  0  0  0  0  0  0  0  0  0  0  0
   -1.0230   -2.0952    3.3893 C   0  0  0  0  0  0  0  0  0  0  0  0
    1.1828   -1.5289    3.9831 C   0  0  0  0  0  0  0  0  0  0  0  0
   -2.0033   -2.3823    2.4905 F   0  0  0  0  0  0  0  0  0  0  0  0
   -1.3049   -2.2282    4.7416 C   0  0  0  0  0  0  0  0  0  0  0  0
    0.8168   -1.6994    5.3023 C   0  0  0  0  0  0  0  0  0  0  0  0
    2.1973   -1.2784    3.7196 H   0  0  0  0  0  0  0  0  0  0  0  0
   -2.8965   -2.6787    5.2602 Cl  0  0  0  0  0  0  0  0  0  0  0  0
   -0.4138   -2.0286    5.6865 N   0  0  0  0  0  0  0  0  0  0  0  0
    1.5192   -1.5741    6.1141 H   0  0  0  0  0  0  0  0  0  0  0  0
  1  2  4  0  0  0  0
  2  3  4  0  0  0  0
  3  4  4  0  0  0  0
  4  5  4  0  0  0  0
  1  6  4  0  0  0  0
  5  6  4  0  0  0  0
  6  7  1  0  0  0  0
  5  8  1  0  0  0  0
  3  9  1  0  0  0  0
  2 10  1  0  0  0  0
 10 11  4  0  0  0  0
 11 12  4  0  0  0  0
 12 13  4  0  0  0  0
 13 14  4  0  0  0  0
 10 15  4  0  0  0  0
 14 15  4  0  0  0  0
 15 16  1  0  0  0  0
 13 17  1  0  0  0  0
 12 18  1  0  0  0  0
  1 19  1  0  0  0  0
 11 19  1  0  0  0  0
 19 20  1  0  0  0  0
 19 21  1  0  0  0  0
 21 22  1  0  0  0  0
 22 23  1  0  0  0  0
 23 24  1  0  0  0  0
 24 25  1  0  0  0  0
 24 26  1  0  0  0  0
 24 27  1  0  0  0  0
 23 28  1  0  0  0  0
 28 29  1  0  0  0  0
 28 30  1  0  0  0  0
 28 31  1  0  0  0  0
 23 32  1  0  0  0  0
 21 33  1  0  0  0  0
 32 33  1  0  0  0  0
 32 34  1  0  0  0  0
 34 35  1  0  0  0  0
 34 36  1  0  0  0  0
 34 37  1  0  0  0  0
 32 38  1  0  0  0  0
 38 39  1  0  0  0  0
 38 40  1  0  0  0  0
 38 41  1  0  0  0  0
 19 42  1  0  0  0  0
 42 43  1  0  0  0  0
 43 44  1  0  0  0  0
 44 45  1  0  0  0  0
 45 46  1  0  0  0  0
 45 47  1  0  0  0  0
 45 48  1  0  0  0  0
 44 49  1  0  0  0  0
 49 50  1  0  0  0  0
 49 51  1  0  0  0  0
 49 52  1  0  0  0  0
 44 53  1  0  0  0  0
 42 54  1  0  0  0  0
 53 54  1  0  0  0  0
 53 55  1  0  0  0  0
 55 56  1  0  0  0  0
 55 57  1  0  0  0  0
 55 58  1  0  0  0  0
 53 59  1  0  0  0  0
 59 60  1  0  0  0  0
 59 61  1  0  0  0  0
 59 62  1  0  0  0  0
 19 63  1  0  0  0  0
 63 64  1  0  0  0  0
 64 65  1  0  0  0  0
 65 66  1  0  0  0  0
 66 67  1  0  0  0  0
 66 68  1  0  0  0  0
 66 69  1  0  0  0  0
 65 70  1  0  0  0  0
 70 71  1  0  0  0  0
 70 72  1  0  0  0  0
 70 73  1  0  0  0  0
 65 74  1  0  0  0  0
 63 75  1  0  0  0  0
 74 75  1  0  0  0  0
 74 76  1  0  0  0  0
 76 77  1  0  0  0  0
 76 78  1  0  0  0  0
 76 79  1  0  0  0  0
 74 80  1  0  0  0  0
 80 81  1  0  0  0  0
 80 82  1  0  0  0  0
 80 83  1  0  0  0  0
  4 84  1  0  0  0  0
 14 85  1  0  0  0  0
 19 86  1  0  0  0  0
 20 86  1  0  0  0  0
 86 87  4  0  0  0  0
 86 88  4  0  0  0  0
 87 89  1  0  0  0  0
 87 90  4  0  0  0  0
 88 91  4  0  0  0  0
 88 92  1  0  0  0  0
 90 93  1  0  0  0  0
 90 94  4  0  0  0  0
 91 94  4  0  0  0  0
 91 95  1  0  0  0  0
M  END
