   20

C          1.47695       -0.30993        0.10731
C          2.88916       -0.71442        0.38557
O          3.61551        0.00875        1.07164
C          3.44107       -2.02351       -0.13626
C          1.03692        1.02728        0.04176
O          1.73644        2.20069        0.10527
C          3.04492        2.28785       -0.43425
C         -0.34538        1.28908       -0.03047
C         -1.28783        0.26550       -0.06495
C         -0.85820       -1.05186       -0.03288
C          0.50790       -1.33657        0.05751
H          2.69662       -2.68454       -0.58001
H          3.90521       -2.56449        0.70170
H          4.20251       -1.81960       -0.89283
H          3.13471        3.26671       -0.91958
H          3.26596        1.52668       -1.18716
H          3.77354        2.27957        0.38005
H         -0.68921        2.32260       -0.04759
H         -2.34748        0.50167       -0.10011
H          0.78241       -2.38315        0.14609
