
  xtb     01142213353D
 xtb: 6.4.1 (1a32961)
 98105  0     0  0            999 V2000
   -0.8799   -1.9430   -0.4902 N   0  0  0  0  0  0  0  0  0  0  0  0
   -2.1008   -1.4077   -0.6774 C   0  0  0  0  0  0  0  0  0  0  0  0
   -2.9172   -1.8318   -1.7326 C   0  0  0  0  0  0  0  0  0  0  0  0
   -2.4802   -2.8228   -2.5839 C   0  0  0  0  0  0  0  0  0  0  0  0
   -1.2216   -3.3776   -2.3686 C   0  0  0  0  0  0  0  0  0  0  0  0
   -0.4678   -2.8973   -1.3187 C   0  0  0  0  0  0  0  0  0  0  0  0
    0.5178   -3.2933   -1.1175 H   0  0  0  0  0  0  0  0  0  0  0  0
   -0.8408   -4.1601   -3.0050 H   0  0  0  0  0  0  0  0  0  0  0  0
   -3.8841   -1.3835   -1.8926 H   0  0  0  0  0  0  0  0  0  0  0  0
   -2.5102   -0.3793    0.2717 C   0  0  0  0  0  0  0  0  0  0  0  0
   -1.5844    0.0229    1.1674 N   0  0  0  0  0  0  0  0  0  0  0  0
   -1.9296    0.9282    2.0789 C   0  0  0  0  0  0  0  0  0  0  0  0
   -3.1851    1.4960    2.1543 C   0  0  0  0  0  0  0  0  0  0  0  0
   -4.1466    1.1045    1.2274 C   0  0  0  0  0  0  0  0  0  0  0  0
   -3.8015    0.1609    0.2839 C   0  0  0  0  0  0  0  0  0  0  0  0
   -4.5385   -0.1687   -0.4298 H   0  0  0  0  0  0  0  0  0  0  0  0
   -3.4103    2.2182    2.9223 H   0  0  0  0  0  0  0  0  0  0  0  0
   -1.1502    1.2065    2.7712 H   0  0  0  0  0  0  0  0  0  0  0  0
    0.4215   -0.8165    0.9133 Ir  0  0  0  0  0  0  0  0  0  0  0  0
    0.8726   -2.2303    1.5405 H   0  0  0  0  0  0  0  0  0  0  0  0
    0.4632    0.6511   -0.5816 B   0  0  0  0  0  0  0  0  0  0  0  0
   -0.3022    0.4950   -1.7254 O   0  0  0  0  0  0  0  0  0  0  0  0
   -0.3222    1.7149   -2.4727 C   0  0  0  0  0  0  0  0  0  0  0  0
   -0.2558    1.4074   -3.9667 C   0  0  0  0  0  0  0  0  0  0  0  0
    0.5860    0.7611   -4.1919 H   0  0  0  0  0  0  0  0  0  0  0  0
   -0.1700    2.3307   -4.5340 H   0  0  0  0  0  0  0  0  0  0  0  0
   -1.1672    0.8942   -4.2648 H   0  0  0  0  0  0  0  0  0  0  0  0
   -1.6559    2.4084   -2.1586 C   0  0  0  0  0  0  0  0  0  0  0  0
   -1.7648    3.3284   -2.7253 H   0  0  0  0  0  0  0  0  0  0  0  0
   -2.4686    1.7327   -2.4185 H   0  0  0  0  0  0  0  0  0  0  0  0
   -1.7235    2.6208   -1.0934 H   0  0  0  0  0  0  0  0  0  0  0  0
    0.9105    2.4867   -1.8981 C   0  0  0  0  0  0  0  0  0  0  0  0
    1.0813    1.8804   -0.6104 O   0  0  0  0  0  0  0  0  0  0  0  0
    2.1960    2.2136   -2.6884 C   0  0  0  0  0  0  0  0  0  0  0  0
    2.3658    1.1406   -2.7324 H   0  0  0  0  0  0  0  0  0  0  0  0
    2.1445    2.6343   -3.6885 H   0  0  0  0  0  0  0  0  0  0  0  0
    3.0336    2.6609   -2.1578 H   0  0  0  0  0  0  0  0  0  0  0  0
    0.7146    3.9940   -1.7442 C   0  0  0  0  0  0  0  0  0  0  0  0
   -0.0714    4.2168   -1.0291 H   0  0  0  0  0  0  0  0  0  0  0  0
    1.6388    4.4386   -1.3824 H   0  0  0  0  0  0  0  0  0  0  0  0
    0.4668    4.4373   -2.7053 H   0  0  0  0  0  0  0  0  0  0  0  0
    1.5257    0.6804    1.8580 B   0  0  0  0  0  0  0  0  0  0  0  0
    2.8898    0.7822    1.9722 O   0  0  0  0  0  0  0  0  0  0  0  0
    3.2549    2.0617    2.5078 C   0  0  0  0  0  0  0  0  0  0  0  0
    4.3733    1.8821    3.5338 C   0  0  0  0  0  0  0  0  0  0  0  0
    4.0766    1.1906    4.3145 H   0  0  0  0  0  0  0  0  0  0  0  0
    5.2485    1.4759    3.0335 H   0  0  0  0  0  0  0  0  0  0  0  0
    4.6332    2.8403    3.9752 H   0  0  0  0  0  0  0  0  0  0  0  0
    3.7734    2.8957    1.3299 C   0  0  0  0  0  0  0  0  0  0  0  0
    4.0334    3.9043    1.6365 H   0  0  0  0  0  0  0  0  0  0  0  0
    4.6597    2.4120    0.9249 H   0  0  0  0  0  0  0  0  0  0  0  0
    3.0152    2.9155    0.5516 H   0  0  0  0  0  0  0  0  0  0  0  0
    1.9007    2.5963    3.0950 C   0  0  0  0  0  0  0  0  0  0  0  0
    0.9240    1.7562    2.4666 O   0  0  0  0  0  0  0  0  0  0  0  0
    1.5909    4.0546    2.7579 C   0  0  0  0  0  0  0  0  0  0  0  0
    1.5067    4.1863    1.6843 H   0  0  0  0  0  0  0  0  0  0  0  0
    0.6406    4.3291    3.2093 H   0  0  0  0  0  0  0  0  0  0  0  0
    2.3665    4.7065    3.1503 H   0  0  0  0  0  0  0  0  0  0  0  0
    1.7662    2.3894    4.6094 C   0  0  0  0  0  0  0  0  0  0  0  0
    1.8890    1.3392    4.8588 H   0  0  0  0  0  0  0  0  0  0  0  0
    2.4905    2.9892    5.1515 H   0  0  0  0  0  0  0  0  0  0  0  0
    0.7655    2.6878    4.9134 H   0  0  0  0  0  0  0  0  0  0  0  0
    2.2782   -1.3309    0.1741 B   0  0  0  0  0  0  0  0  0  0  0  0
    3.2051   -2.1292    0.8110 O   0  0  0  0  0  0  0  0  0  0  0  0
    4.4431   -2.1345    0.0902 C   0  0  0  0  0  0  0  0  0  0  0  0
    5.3899   -1.1866    0.8343 C   0  0  0  0  0  0  0  0  0  0  0  0
    4.9108   -0.2168    0.9310 H   0  0  0  0  0  0  0  0  0  0  0  0
    5.5522   -1.5796    1.8348 H   0  0  0  0  0  0  0  0  0  0  0  0
    6.3461   -1.0974    0.3280 H   0  0  0  0  0  0  0  0  0  0  0  0
    5.0321   -3.5454    0.0993 C   0  0  0  0  0  0  0  0  0  0  0  0
    5.2719   -3.8171    1.1238 H   0  0  0  0  0  0  0  0  0  0  0  0
    5.9405   -3.5750   -0.4959 H   0  0  0  0  0  0  0  0  0  0  0  0
    4.3236   -4.2729   -0.2824 H   0  0  0  0  0  0  0  0  0  0  0  0
    4.0235   -1.5995   -1.3242 C   0  0  0  0  0  0  0  0  0  0  0  0
    2.7572   -0.9726   -1.0678 O   0  0  0  0  0  0  0  0  0  0  0  0
    4.9787   -0.5727   -1.9306 C   0  0  0  0  0  0  0  0  0  0  0  0
    5.9744   -0.9961   -2.0299 H   0  0  0  0  0  0  0  0  0  0  0  0
    4.6188   -0.2901   -2.9168 H   0  0  0  0  0  0  0  0  0  0  0  0
    5.0167    0.3199   -1.3156 H   0  0  0  0  0  0  0  0  0  0  0  0
    3.7781   -2.7183   -2.3459 C   0  0  0  0  0  0  0  0  0  0  0  0
    3.0742   -3.4438   -1.9474 H   0  0  0  0  0  0  0  0  0  0  0  0
    3.3406   -2.2823   -3.2408 H   0  0  0  0  0  0  0  0  0  0  0  0
    4.7064   -3.2149   -2.6117 H   0  0  0  0  0  0  0  0  0  0  0  0
   -3.1016   -3.1598   -3.3999 H   0  0  0  0  0  0  0  0  0  0  0  0
   -5.1422    1.5213    1.2497 H   0  0  0  0  0  0  0  0  0  0  0  0
    0.2359   -1.6814    2.9603 C   0  0  0  0  0  0  0  0  0  0  0  0
   -0.9783   -2.1694    3.4360 C   0  0  0  0  0  0  0  0  0  0  0  0
    1.2159   -1.4236    3.9151 C   0  0  0  0  0  0  0  0  0  0  0  0
   -1.2545   -2.2607    4.7917 C   0  0  0  0  0  0  0  0  0  0  0  0
   -2.2107   -2.7500    2.3403 Cl  0  0  0  0  0  0  0  0  0  0  0  0
    0.9752   -1.5202    5.2865 C   0  0  0  0  0  0  0  0  0  0  0  0
    2.2001   -1.1414    3.5741 H   0  0  0  0  0  0  0  0  0  0  0  0
   -0.2915   -1.9210    5.7190 C   0  0  0  0  0  0  0  0  0  0  0  0
   -2.2210   -2.6166    5.1162 H   0  0  0  0  0  0  0  0  0  0  0  0
    1.9556   -1.1686    6.1933 N   0  0  0  0  0  0  0  0  0  0  0  0
   -0.5084   -1.9936    6.7740 H   0  0  0  0  0  0  0  0  0  0  0  0
    1.8478   -1.5398    7.1235 H   0  0  0  0  0  0  0  0  0  0  0  0
    2.8977   -1.2014    5.8376 H   0  0  0  0  0  0  0  0  0  0  0  0
  1  2  4  0  0  0  0
  2  3  4  0  0  0  0
  3  4  4  0  0  0  0
  4  5  4  0  0  0  0
  1  6  4  0  0  0  0
  5  6  4  0  0  0  0
  6  7  1  0  0  0  0
  5  8  1  0  0  0  0
  3  9  1  0  0  0  0
  2 10  1  0  0  0  0
 10 11  4  0  0  0  0
 11 12  4  0  0  0  0
 12 13  4  0  0  0  0
 13 14  4  0  0  0  0
 10 15  4  0  0  0  0
 14 15  4  0  0  0  0
 15 16  1  0  0  0  0
 13 17  1  0  0  0  0
 12 18  1  0  0  0  0
  1 19  1  0  0  0  0
 11 19  1  0  0  0  0
 19 20  1  0  0  0  0
 19 21  1  0  0  0  0
 21 22  1  0  0  0  0
 22 23  1  0  0  0  0
 23 24  1  0  0  0  0
 24 25  1  0  0  0  0
 24 26  1  0  0  0  0
 24 27  1  0  0  0  0
 23 28  1  0  0  0  0
 28 29  1  0  0  0  0
 28 30  1  0  0  0  0
 28 31  1  0  0  0  0
 23 32  1  0  0  0  0
 21 33  1  0  0  0  0
 32 33  1  0  0  0  0
 32 34  1  0  0  0  0
 34 35  1  0  0  0  0
 34 36  1  0  0  0  0
 34 37  1  0  0  0  0
 32 38  1  0  0  0  0
 38 39  1  0  0  0  0
 38 40  1  0  0  0  0
 38 41  1  0  0  0  0
 19 42  1  0  0  0  0
 42 43  1  0  0  0  0
 43 44  1  0  0  0  0
 44 45  1  0  0  0  0
 45 46  1  0  0  0  0
 45 47  1  0  0  0  0
 45 48  1  0  0  0  0
 44 49  1  0  0  0  0
 49 50  1  0  0  0  0
 49 51  1  0  0  0  0
 49 52  1  0  0  0  0
 44 53  1  0  0  0  0
 42 54  1  0  0  0  0
 53 54  1  0  0  0  0
 53 55  1  0  0  0  0
 55 56  1  0  0  0  0
 55 57  1  0  0  0  0
 55 58  1  0  0  0  0
 53 59  1  0  0  0  0
 59 60  1  0  0  0  0
 59 61  1  0  0  0  0
 59 62  1  0  0  0  0
 19 63  1  0  0  0  0
 63 64  1  0  0  0  0
 64 65  1  0  0  0  0
 65 66  1  0  0  0  0
 66 67  1  0  0  0  0
 66 68  1  0  0  0  0
 66 69  1  0  0  0  0
 65 70  1  0  0  0  0
 70 71  1  0  0  0  0
 70 72  1  0  0  0  0
 70 73  1  0  0  0  0
 65 74  1  0  0  0  0
 63 75  1  0  0  0  0
 74 75  1  0  0  0  0
 74 76  1  0  0  0  0
 76 77  1  0  0  0  0
 76 78  1  0  0  0  0
 76 79  1  0  0  0  0
 74 80  1  0  0  0  0
 80 81  1  0  0  0  0
 80 82  1  0  0  0  0
 80 83  1  0  0  0  0
  4 84  1  0  0  0  0
 14 85  1  0  0  0  0
 19 86  1  0  0  0  0
 20 86  1  0  0  0  0
 86 87  4  0  0  0  0
 86 88  4  0  0  0  0
 87 89  4  0  0  0  0
 87 90  1  0  0  0  0
 88 91  4  0  0  0  0
 88 92  1  0  0  0  0
 89 93  4  0  0  0  0
 91 93  4  0  0  0  0
 89 94  1  0  0  0  0
 91 95  1  0  0  0  0
 93 96  1  0  0  0  0
 95 97  1  0  0  0  0
 95 98  1  0  0  0  0
M  END
