
  xtb     01142213413D
 xtb: 6.4.1 (1a32961)
 13 13  0     0  0            999 V2000
   -1.3676    0.6873    0.0019 C   0  0  0  0  0  0  0  0  0  0  0  0
   -0.0545    1.0435    0.0053 N   0  0  0  0  0  0  0  0  0  0  0  0
    0.7262   -0.0713    0.0049 C   0  0  0  0  0  0  0  0  0  0  0  0
    2.2152    0.0053    0.0079 C   0  0  0  0  0  0  0  0  0  0  0  0
   -0.1103   -1.1599    0.0008 C   0  0  0  0  0  0  0  0  0  0  0  0
   -1.4359   -0.6785    0.0000 C   0  0  0  0  0  0  0  0  0  0  0  0
   -2.1486    1.4223    0.0013 H   0  0  0  0  0  0  0  0  0  0  0  0
    0.2897    1.9892    0.0074 H   0  0  0  0  0  0  0  0  0  0  0  0
    2.5440    1.0419   -0.0002 H   0  0  0  0  0  0  0  0  0  0  0  0
    2.6268   -0.4964   -0.8673 H   0  0  0  0  0  0  0  0  0  0  0  0
    2.6235   -0.4814    0.8932 H   0  0  0  0  0  0  0  0  0  0  0  0
    0.1907   -2.1900   -0.0008 H   0  0  0  0  0  0  0  0  0  0  0  0
   -2.3286   -1.2744   -0.0027 H   0  0  0  0  0  0  0  0  0  0  0  0
  1  2  4  0  0  0  0
  2  3  4  0  0  0  0
  3  4  1  0  0  0  0
  3  5  2  0  0  0  0
  1  6  2  0  0  0  0
  5  6  4  0  0  0  0
  1  7  1  0  0  0  0
  2  8  1  0  0  0  0
  4  9  1  0  0  0  0
  4 10  1  0  0  0  0
  4 11  1  0  0  0  0
  5 12  1  0  0  0  0
  6 13  1  0  0  0  0
M  END
