  125
Created with kallisto
N     -0.9651   -2.1153   -0.2409
C     -2.2470   -1.6984   -0.3622
C     -3.1404   -2.3682   -1.2120
C     -2.7022   -3.4756   -1.9305
C     -1.3778   -3.8988   -1.7876
C     -0.5429   -3.1867   -0.9351
H      0.4981   -3.4563   -0.7894
H     -0.9957   -4.7603   -2.3277
H     -4.1650   -2.0289   -1.3183
C     -2.6213   -0.5095    0.4410
N     -1.6260    0.0733    1.1602
C     -1.8968    1.1524    1.9169
C     -3.1723    1.7033    1.9965
C     -4.2051    1.1174    1.2627
C     -3.9261    0.0025    0.4782
H     -4.7196   -0.4642   -0.0952
H     -3.3463    2.5751    2.6207
H     -1.0445    1.5742    2.4369
Ir     0.4215   -0.8165    0.9133
H      0.8726   -2.2303    1.5405
B      0.5067    0.4156   -0.8154
O      0.1950   -0.0470   -2.0915
C      0.0065    1.1004   -2.9543
C      0.4902    0.7474   -4.3578
H      1.5161    0.3738   -4.3370
H      0.4473    1.6224   -5.0167
H     -0.1474   -0.0339   -4.7843
C     -1.5012    1.3956   -2.9667
H     -1.7537    2.2146   -3.6485
H     -2.0320    0.4945   -3.2893
H     -1.8517    1.6521   -1.9622
C      0.8423    2.2067   -2.2204
O      0.7520    1.7826   -0.8369
C      2.3293    2.1862   -2.5990
H      2.7413    1.1850   -2.4575
H      2.4887    2.5130   -3.6318
H      2.8720    2.8627   -1.9320
C      0.2844    3.6229   -2.3366
H     -0.7265    3.6904   -1.9291
H      0.9213    4.3148   -1.7761
H      0.2643    3.9481   -3.3832
B      1.5630    0.6096    1.8484
O      2.9278    0.5523    2.1502
C      3.3633    1.8866    2.5026
C      4.5314    1.7859    3.4774
H      4.2791    1.1609    4.3369
H      5.3939    1.3379    2.9734
H      4.8239    2.7787    3.8382
C      3.7970    2.5685    1.1967
H      4.2002    3.5709    1.3768
H      4.5674    1.9556    0.7211
H      2.9524    2.6326    0.5054
C      2.0504    2.5009    3.0932
O      1.0375    1.8162    2.3191
C      1.8910    4.0045    2.8865
H      1.8729    4.2544    1.8241
H      0.9494    4.3426    3.3317
H      2.7108    4.5515    3.3663
C      1.8247    2.1320    4.5652
H      1.9261    1.0533    4.7132
H      2.5261    2.6528    5.2254
H      0.8063    2.4158    4.8490
B      2.2782   -1.3309    0.1741
O      2.8946   -2.5774    0.3845
C      4.2693   -2.4820   -0.0721
C      5.1090   -2.0538    1.1401
H      4.7635   -1.0874    1.5175
H      4.9805   -2.7947    1.9359
H      6.1742   -1.9929    0.8930
C      4.7195   -3.8466   -0.5847
H      4.7528   -4.5613    0.2442
H      5.7233   -3.7837   -1.0201
H      4.0350   -4.2360   -1.3417
C      4.1644   -1.3622   -1.1630
O      3.0852   -0.5503   -0.6540
C      5.4072   -0.4887   -1.3155
H      6.2732   -1.0901   -1.6153
H      5.2330    0.2693   -2.0859
H      5.6427    0.0265   -0.3824
C      3.7180   -1.8983   -2.5311
H      2.8253   -2.5216   -2.4274
H      3.4609   -1.0525   -3.1755
H      4.5057   -2.4829   -3.0179
H     -3.3850   -4.0013   -2.5931
H     -5.2140    1.5208    1.2996
C      0.2359   -1.6814    2.9603
C     -1.0206   -2.0850    3.4182
C      1.3637   -1.8250    3.7926
C     -1.1661   -2.6666    4.6645
H     -1.8918   -1.9238    2.7874
N      2.7048   -1.4640    3.6638
C      1.2244   -2.4157    5.0540
C     -0.0511   -2.8501    5.4816
H     -2.1483   -2.9808    5.0073
O      3.3921   -0.9906    2.5155
C      3.4212   -1.8889    4.7745
C      2.5153   -2.4792    5.6548
H     -0.1677   -3.3236    6.4519
Si     2.7878    0.3237    1.6741
C      4.7933   -1.8287    5.0697
C      2.9885   -3.0199    6.8705
C      1.9791   -0.3556    0.0906
C      1.6532    1.4452    2.6641
C      4.1256    1.4897    0.9938
C      5.2409   -2.3806    6.2815
H      5.4979   -1.3808    4.3747
C      4.3543   -2.9824    7.1809
H      2.2855   -3.4898    7.5556
H      1.3746   -1.2421    0.2803
H      2.7666   -0.6623   -0.6053
H      1.3592    0.4051   -0.3928
H      0.9038    0.9101    3.2482
H      1.1244    2.1358    2.0003
H      2.2453    2.0418    3.3662
H      4.8335    0.9463    0.3633
H      4.6631    1.9885    1.8032
H      3.6407    2.2572    0.3790
H      6.3044   -2.3418    6.5123
C      4.8467   -3.5884    8.4743
C      4.8176   -2.5956    9.6254
H      5.8648   -3.9734    8.3426
H      4.2277   -4.4586    8.7283
H      5.4683   -1.7386    9.4285
H      5.1612   -3.0768   10.5490
H      3.8046   -2.2169    9.8022
