
  xtb     01142214423D
 xtb: 6.4.1 (1a32961)
125134  0     0  0            999 V2000
   -0.9472   -2.4117   -0.0629 N   0  0  0  0  0  0  0  0  0  0  0  0
   -2.2622   -2.1548   -0.1113 C   0  0  0  0  0  0  0  0  0  0  0  0
   -3.1811   -3.1327   -0.5122 C   0  0  0  0  0  0  0  0  0  0  0  0
   -2.7258   -4.3727   -0.9062 C   0  0  0  0  0  0  0  0  0  0  0  0
   -1.3551   -4.6097   -0.8976 C   0  0  0  0  0  0  0  0  0  0  0  0
   -0.5160   -3.6030   -0.4587 C   0  0  0  0  0  0  0  0  0  0  0  0
    0.5541   -3.7448   -0.4162 H   0  0  0  0  0  0  0  0  0  0  0  0
   -0.9527   -5.5602   -1.2079 H   0  0  0  0  0  0  0  0  0  0  0  0
   -4.2398   -2.9307   -0.4934 H   0  0  0  0  0  0  0  0  0  0  0  0
   -2.6835   -0.8168    0.2916 C   0  0  0  0  0  0  0  0  0  0  0  0
   -1.7792   -0.0734    0.9533 N   0  0  0  0  0  0  0  0  0  0  0  0
   -2.1432    1.1299    1.3853 C   0  0  0  0  0  0  0  0  0  0  0  0
   -3.3903    1.6781    1.1605 C   0  0  0  0  0  0  0  0  0  0  0  0
   -4.3199    0.9393    0.4350 C   0  0  0  0  0  0  0  0  0  0  0  0
   -3.9606   -0.3200    0.0016 C   0  0  0  0  0  0  0  0  0  0  0  0
   -4.6587   -0.9090   -0.5713 H   0  0  0  0  0  0  0  0  0  0  0  0
   -3.6320    2.6571    1.5415 H   0  0  0  0  0  0  0  0  0  0  0  0
   -1.3890    1.6562    1.9467 H   0  0  0  0  0  0  0  0  0  0  0  0
    0.4215   -0.8165    0.9133 Ir  0  0  0  0  0  0  0  0  0  0  0  0
    0.8726   -2.2303    1.5405 H   0  0  0  0  0  0  0  0  0  0  0  0
    0.1258    0.2912   -0.8363 B   0  0  0  0  0  0  0  0  0  0  0  0
   -0.1492   -0.4055   -1.9996 O   0  0  0  0  0  0  0  0  0  0  0  0
   -0.7280    0.4491   -2.9906 C   0  0  0  0  0  0  0  0  0  0  0  0
   -0.0635    0.1765   -4.3410 C   0  0  0  0  0  0  0  0  0  0  0  0
    1.0112    0.3091   -4.2863 H   0  0  0  0  0  0  0  0  0  0  0  0
   -0.4761    0.8331   -5.1027 H   0  0  0  0  0  0  0  0  0  0  0  0
   -0.2628   -0.8548   -4.6240 H   0  0  0  0  0  0  0  0  0  0  0  0
   -2.2134    0.0783   -3.1113 C   0  0  0  0  0  0  0  0  0  0  0  0
   -2.6992    0.6644   -3.8860 H   0  0  0  0  0  0  0  0  0  0  0  0
   -2.2884   -0.9769   -3.3670 H   0  0  0  0  0  0  0  0  0  0  0  0
   -2.7276    0.2306   -2.1665 H   0  0  0  0  0  0  0  0  0  0  0  0
   -0.4893    1.8865   -2.4047 C   0  0  0  0  0  0  0  0  0  0  0  0
   -0.1357    1.6305   -1.0396 O   0  0  0  0  0  0  0  0  0  0  0  0
    0.6882    2.6115   -3.0682 C   0  0  0  0  0  0  0  0  0  0  0  0
    1.6007    2.0383   -2.9264 H   0  0  0  0  0  0  0  0  0  0  0  0
    0.5031    2.7650   -4.1272 H   0  0  0  0  0  0  0  0  0  0  0  0
    0.8226    3.5818   -2.5962 H   0  0  0  0  0  0  0  0  0  0  0  0
   -1.7126    2.8061   -2.4300 C   0  0  0  0  0  0  0  0  0  0  0  0
   -2.5262    2.3972   -1.8375 H   0  0  0  0  0  0  0  0  0  0  0  0
   -1.4396    3.7680   -2.0016 H   0  0  0  0  0  0  0  0  0  0  0  0
   -2.0489    2.9607   -3.4515 H   0  0  0  0  0  0  0  0  0  0  0  0
    1.3055    0.9747    1.5336 B   0  0  0  0  0  0  0  0  0  0  0  0
    2.3890    1.6377    1.0335 O   0  0  0  0  0  0  0  0  0  0  0  0
    2.4022    3.0145    1.4265 C   0  0  0  0  0  0  0  0  0  0  0  0
    3.7043    3.3083    2.1779 C   0  0  0  0  0  0  0  0  0  0  0  0
    3.8212    2.6409    3.0234 H   0  0  0  0  0  0  0  0  0  0  0  0
    4.5361    3.1405    1.4999 H   0  0  0  0  0  0  0  0  0  0  0  0
    3.7263    4.3414    2.5124 H   0  0  0  0  0  0  0  0  0  0  0  0
    2.3903    3.8532    0.1456 C   0  0  0  0  0  0  0  0  0  0  0  0
    2.3618    4.9153    0.3717 H   0  0  0  0  0  0  0  0  0  0  0  0
    3.2950    3.6353   -0.4152 H   0  0  0  0  0  0  0  0  0  0  0  0
    1.5418    3.5742   -0.4675 H   0  0  0  0  0  0  0  0  0  0  0  0
    1.1024    3.1569    2.3057 C   0  0  0  0  0  0  0  0  0  0  0  0
    0.6156    1.8118    2.3963 O   0  0  0  0  0  0  0  0  0  0  0  0
    0.0029    3.9985    1.6423 C   0  0  0  0  0  0  0  0  0  0  0  0
   -0.2922    3.5442    0.7006 H   0  0  0  0  0  0  0  0  0  0  0  0
   -0.8643    4.0251    2.2988 H   0  0  0  0  0  0  0  0  0  0  0  0
    0.3401    5.0167    1.4751 H   0  0  0  0  0  0  0  0  0  0  0  0
    1.3328    3.6978    3.7195 C   0  0  0  0  0  0  0  0  0  0  0  0
    2.0561    3.0993    4.2606 H   0  0  0  0  0  0  0  0  0  0  0  0
    1.6729    4.7284    3.6761 H   0  0  0  0  0  0  0  0  0  0  0  0
    0.3924    3.6609    4.2644 H   0  0  0  0  0  0  0  0  0  0  0  0
    2.2782   -1.3309    0.1741 B   0  0  0  0  0  0  0  0  0  0  0  0
    2.4759   -2.6831   -0.0699 O   0  0  0  0  0  0  0  0  0  0  0  0
    3.6335   -2.8888   -0.8850 C   0  0  0  0  0  0  0  0  0  0  0  0
    4.7529   -3.3875    0.0355 C   0  0  0  0  0  0  0  0  0  0  0  0
    4.9109   -2.6660    0.8317 H   0  0  0  0  0  0  0  0  0  0  0  0
    4.4353   -4.3228    0.4903 H   0  0  0  0  0  0  0  0  0  0  0  0
    5.6718   -3.5561   -0.5176 H   0  0  0  0  0  0  0  0  0  0  0  0
    3.3294   -3.9558   -1.9372 C   0  0  0  0  0  0  0  0  0  0  0  0
    3.1711   -4.9091   -1.4389 H   0  0  0  0  0  0  0  0  0  0  0  0
    4.1663   -4.0554   -2.6229 H   0  0  0  0  0  0  0  0  0  0  0  0
    2.4313   -3.7075   -2.4933 H   0  0  0  0  0  0  0  0  0  0  0  0
    3.8947   -1.4549   -1.4554 C   0  0  0  0  0  0  0  0  0  0  0  0
    3.2184   -0.6064   -0.5147 O   0  0  0  0  0  0  0  0  0  0  0  0
    5.3654   -1.0664   -1.5763 C   0  0  0  0  0  0  0  0  0  0  0  0
    5.8649   -1.7368   -2.2712 H   0  0  0  0  0  0  0  0  0  0  0  0
    5.4327   -0.0506   -1.9554 H   0  0  0  0  0  0  0  0  0  0  0  0
    5.8624   -1.1028   -0.6150 H   0  0  0  0  0  0  0  0  0  0  0  0
    3.2080   -1.2273   -2.8096 C   0  0  0  0  0  0  0  0  0  0  0  0
    2.1431   -1.4245   -2.7140 H   0  0  0  0  0  0  0  0  0  0  0  0
    3.3330   -0.1819   -3.0822 H   0  0  0  0  0  0  0  0  0  0  0  0
    3.6413   -1.8485   -3.5876 H   0  0  0  0  0  0  0  0  0  0  0  0
   -3.4204   -5.1410   -1.2111 H   0  0  0  0  0  0  0  0  0  0  0  0
   -5.3001    1.3369    0.2176 H   0  0  0  0  0  0  0  0  0  0  0  0
    0.2359   -1.6814    2.9603 C   0  0  0  0  0  0  0  0  0  0  0  0
   -1.0655   -1.6495    3.4517 C   0  0  0  0  0  0  0  0  0  0  0  0
    1.1787   -2.2231    3.8543 C   0  0  0  0  0  0  0  0  0  0  0  0
   -1.4115   -2.0474    4.7443 C   0  0  0  0  0  0  0  0  0  0  0  0
   -1.8763   -1.3147    2.8270 H   0  0  0  0  0  0  0  0  0  0  0  0
    2.5029   -2.5652    3.6238 N   0  0  0  0  0  0  0  0  0  0  0  0
    0.8189   -2.7378    5.1282 C   0  0  0  0  0  0  0  0  0  0  0  0
   -0.4857   -2.6158    5.5902 C   0  0  0  0  0  0  0  0  0  0  0  0
   -2.4415   -1.9505    5.0599 H   0  0  0  0  0  0  0  0  0  0  0  0
    3.3849   -1.8679    2.8151 O   0  0  0  0  0  0  0  0  0  0  0  0
    2.9791   -3.2870    4.6906 C   0  0  0  0  0  0  0  0  0  0  0  0
    1.9673   -3.4140    5.6643 C   0  0  0  0  0  0  0  0  0  0  0  0
   -0.7649   -2.9923    6.5628 H   0  0  0  0  0  0  0  0  0  0  0  0
    4.3145   -0.6263    3.4753 Si  0  0  0  0  0  0  0  0  0  0  0  0
    4.2057   -3.9162    4.8440 C   0  0  0  0  0  0  0  0  0  0  0  0
    2.2201   -4.1224    6.8336 C   0  0  0  0  0  0  0  0  0  0  0  0
    5.1428    0.1480    1.9654 C   0  0  0  0  0  0  0  0  0  0  0  0
    3.1598    0.4134    4.5736 C   0  0  0  0  0  0  0  0  0  0  0  0
    5.7527   -1.1962    4.6161 C   0  0  0  0  0  0  0  0  0  0  0  0
    4.4268   -4.6205    6.0088 C   0  0  0  0  0  0  0  0  0  0  0  0
    4.9517   -3.8593    4.0685 H   0  0  0  0  0  0  0  0  0  0  0  0
    3.4580   -4.7163    7.0144 C   0  0  0  0  0  0  0  0  0  0  0  0
    1.4546   -4.2138    7.5907 H   0  0  0  0  0  0  0  0  0  0  0  0
    4.4121    0.3942    1.2041 H   0  0  0  0  0  0  0  0  0  0  0  0
    5.6731    1.0491    2.2509 H   0  0  0  0  0  0  0  0  0  0  0  0
    5.8759   -0.5293    1.5390 H   0  0  0  0  0  0  0  0  0  0  0  0
    2.7923   -0.1792    5.4090 H   0  0  0  0  0  0  0  0  0  0  0  0
    2.2949    0.7372    4.0026 H   0  0  0  0  0  0  0  0  0  0  0  0
    3.6554    1.2826    4.9942 H   0  0  0  0  0  0  0  0  0  0  0  0
    5.4051   -1.6663    5.5309 H   0  0  0  0  0  0  0  0  0  0  0  0
    6.3530   -0.3372    4.9018 H   0  0  0  0  0  0  0  0  0  0  0  0
    6.4185   -1.8958    4.1190 H   0  0  0  0  0  0  0  0  0  0  0  0
    5.3741   -5.1203    6.1511 H   0  0  0  0  0  0  0  0  0  0  0  0
    3.7915   -5.4478    8.2865 C   0  0  0  0  0  0  0  0  0  0  0  0
    4.7128   -4.6098    9.1772 C   0  0  0  0  0  0  0  0  0  0  0  0
    4.2898   -6.3906    8.0476 H   0  0  0  0  0  0  0  0  0  0  0  0
    2.8744   -5.6776    8.8319 H   0  0  0  0  0  0  0  0  0  0  0  0
    5.6406   -4.3835    8.6568 H   0  0  0  0  0  0  0  0  0  0  0  0
    4.9500   -5.1484   10.0920 H   0  0  0  0  0  0  0  0  0  0  0  0
    4.2316   -3.6705    9.4408 H   0  0  0  0  0  0  0  0  0  0  0  0
  1  2  4  0  0  0  0
  2  3  4  0  0  0  0
  3  4  4  0  0  0  0
  4  5  4  0  0  0  0
  1  6  4  0  0  0  0
  5  6  4  0  0  0  0
  6  7  1  0  0  0  0
  5  8  1  0  0  0  0
  3  9  1  0  0  0  0
  2 10  1  0  0  0  0
 10 11  4  0  0  0  0
 11 12  4  0  0  0  0
 12 13  4  0  0  0  0
 13 14  4  0  0  0  0
 10 15  4  0  0  0  0
 14 15  4  0  0  0  0
 15 16  1  0  0  0  0
 13 17  1  0  0  0  0
 12 18  1  0  0  0  0
  1 19  1  0  0  0  0
 11 19  1  0  0  0  0
 19 20  1  0  0  0  0
 19 21  1  0  0  0  0
 21 22  1  0  0  0  0
 22 23  1  0  0  0  0
 23 24  1  0  0  0  0
 24 25  1  0  0  0  0
 24 26  1  0  0  0  0
 24 27  1  0  0  0  0
 23 28  1  0  0  0  0
 28 29  1  0  0  0  0
 28 30  1  0  0  0  0
 28 31  1  0  0  0  0
 23 32  1  0  0  0  0
 21 33  1  0  0  0  0
 32 33  1  0  0  0  0
 32 34  1  0  0  0  0
 34 35  1  0  0  0  0
 34 36  1  0  0  0  0
 34 37  1  0  0  0  0
 32 38  1  0  0  0  0
 38 39  1  0  0  0  0
 38 40  1  0  0  0  0
 38 41  1  0  0  0  0
 19 42  1  0  0  0  0
 42 43  1  0  0  0  0
 43 44  1  0  0  0  0
 44 45  1  0  0  0  0
 45 46  1  0  0  0  0
 45 47  1  0  0  0  0
 45 48  1  0  0  0  0
 44 49  1  0  0  0  0
 49 50  1  0  0  0  0
 49 51  1  0  0  0  0
 49 52  1  0  0  0  0
 44 53  1  0  0  0  0
 42 54  1  0  0  0  0
 53 54  1  0  0  0  0
 53 55  1  0  0  0  0
 55 56  1  0  0  0  0
 55 57  1  0  0  0  0
 55 58  1  0  0  0  0
 53 59  1  0  0  0  0
 59 60  1  0  0  0  0
 59 61  1  0  0  0  0
 59 62  1  0  0  0  0
 19 63  1  0  0  0  0
 63 64  1  0  0  0  0
 64 65  1  0  0  0  0
 65 66  1  0  0  0  0
 66 67  1  0  0  0  0
 66 68  1  0  0  0  0
 66 69  1  0  0  0  0
 65 70  1  0  0  0  0
 70 71  1  0  0  0  0
 70 72  1  0  0  0  0
 70 73  1  0  0  0  0
 65 74  1  0  0  0  0
 63 75  1  0  0  0  0
 74 75  1  0  0  0  0
 74 76  1  0  0  0  0
 76 77  1  0  0  0  0
 76 78  1  0  0  0  0
 76 79  1  0  0  0  0
 74 80  1  0  0  0  0
 80 81  1  0  0  0  0
 80 82  1  0  0  0  0
 80 83  1  0  0  0  0
  4 84  1  0  0  0  0
 14 85  1  0  0  0  0
 19 86  1  0  0  0  0
 20 86  1  0  0  0  0
 86 87  4  0  0  0  0
 86 88  4  0  0  0  0
 87 89  4  0  0  0  0
 87 90  1  0  0  0  0
 88 91  1  0  0  0  0
 88 92  4  0  0  0  0
 89 93  4  0  0  0  0
 92 93  4  0  0  0  0
 89 94  1  0  0  0  0
 91 95  1  0  0  0  0
 91 96  1  0  0  0  0
 92 97  1  0  0  0  0
 96 97  4  0  0  0  0
 93 98  1  0  0  0  0
 95 99  1  0  0  0  0
 96100  4  0  0  0  0
 97101  4  0  0  0  0
 99102  1  0  0  0  0
 99103  1  0  0  0  0
 99104  1  0  0  0  0
100105  4  0  0  0  0
100106  1  0  0  0  0
101107  4  0  0  0  0
105107  4  0  0  0  0
101108  1  0  0  0  0
102109  1  0  0  0  0
102110  1  0  0  0  0
102111  1  0  0  0  0
103112  1  0  0  0  0
103113  1  0  0  0  0
103114  1  0  0  0  0
104115  1  0  0  0  0
104116  1  0  0  0  0
104117  1  0  0  0  0
105118  1  0  0  0  0
107119  1  0  0  0  0
119120  1  0  0  0  0
119121  1  0  0  0  0
119122  1  0  0  0  0
120123  1  0  0  0  0
120124  1  0  0  0  0
120125  1  0  0  0  0
M  END
