   14
Created with kallisto
C     -1.1159    1.2068    0.0032
C     -1.8128    0.0003    0.0021
C      0.2801    1.2087    0.0020
C     -1.1150   -1.2062    0.0024
H     -2.8995    0.0001    0.0008
C      0.9905    0.0022   -0.0003
H      0.8087    2.1589    0.0014
C      0.2810   -1.2055    0.0011
H     -1.6574   -2.1477    0.0021
C      2.4902   -0.0083   -0.0129
H      0.8140   -2.1536    0.0001
H      2.8984    1.0077    0.0031
H      2.8558   -0.5030   -0.9179
H      2.8721   -0.5363    0.8669
