
  xtb     01142215063D
 xtb: 6.4.1 (1a32961)
 99106  0     0  0            999 V2000
   -0.9062   -2.0188   -0.3799 N   0  0  0  0  0  0  0  0  0  0  0  0
   -2.1651   -1.5623   -0.5302 C   0  0  0  0  0  0  0  0  0  0  0  0
   -3.0470   -2.1711   -1.4337 C   0  0  0  0  0  0  0  0  0  0  0  0
   -2.6246   -3.2404   -2.1913 C   0  0  0  0  0  0  0  0  0  0  0  0
   -1.3165   -3.6946   -2.0320 C   0  0  0  0  0  0  0  0  0  0  0  0
   -0.5094   -3.0527   -1.1173 C   0  0  0  0  0  0  0  0  0  0  0  0
    0.5091   -3.3757   -0.9526 H   0  0  0  0  0  0  0  0  0  0  0  0
   -0.9428   -4.5287   -2.6033 H   0  0  0  0  0  0  0  0  0  0  0  0
   -4.0568   -1.8106   -1.5418 H   0  0  0  0  0  0  0  0  0  0  0  0
   -2.5357   -0.4165    0.2877 C   0  0  0  0  0  0  0  0  0  0  0  0
   -1.5946    0.0445    1.1410 N   0  0  0  0  0  0  0  0  0  0  0  0
   -1.8937    1.0841    1.9178 C   0  0  0  0  0  0  0  0  0  0  0  0
   -3.1119    1.7301    1.8920 C   0  0  0  0  0  0  0  0  0  0  0  0
   -4.0856    1.2799    1.0027 C   0  0  0  0  0  0  0  0  0  0  0  0
   -3.7898    0.2015    0.1985 C   0  0  0  0  0  0  0  0  0  0  0  0
   -4.5289   -0.1589   -0.4978 H   0  0  0  0  0  0  0  0  0  0  0  0
   -3.3008    2.5632    2.5495 H   0  0  0  0  0  0  0  0  0  0  0  0
   -1.1034    1.4052    2.5787 H   0  0  0  0  0  0  0  0  0  0  0  0
    0.4215   -0.8165    0.9133 Ir  0  0  0  0  0  0  0  0  0  0  0  0
    0.8726   -2.2303    1.5405 H   0  0  0  0  0  0  0  0  0  0  0  0
    0.3982    0.6371   -0.5869 B   0  0  0  0  0  0  0  0  0  0  0  0
   -0.2719    0.3772   -1.7706 O   0  0  0  0  0  0  0  0  0  0  0  0
   -0.3613    1.5707   -2.5553 C   0  0  0  0  0  0  0  0  0  0  0  0
   -0.1541    1.2353   -4.0301 C   0  0  0  0  0  0  0  0  0  0  0  0
    0.7524    0.6554   -4.1679 H   0  0  0  0  0  0  0  0  0  0  0  0
   -0.0978    2.1486   -4.6168 H   0  0  0  0  0  0  0  0  0  0  0  0
   -0.9942    0.6420   -4.3836 H   0  0  0  0  0  0  0  0  0  0  0  0
   -1.7763    2.1340   -2.3577 C   0  0  0  0  0  0  0  0  0  0  0  0
   -1.9354    3.0192   -2.9663 H   0  0  0  0  0  0  0  0  0  0  0  0
   -2.4978    1.3713   -2.6445 H   0  0  0  0  0  0  0  0  0  0  0  0
   -1.9402    2.3743   -1.3090 H   0  0  0  0  0  0  0  0  0  0  0  0
    0.7427    2.4773   -1.9203 C   0  0  0  0  0  0  0  0  0  0  0  0
    0.8699    1.9308   -0.6010 O   0  0  0  0  0  0  0  0  0  0  0  0
    2.1061    2.3047   -2.6011 C   0  0  0  0  0  0  0  0  0  0  0  0
    2.3791    1.2522   -2.5873 H   0  0  0  0  0  0  0  0  0  0  0  0
    2.0949    2.6853   -3.6185 H   0  0  0  0  0  0  0  0  0  0  0  0
    2.8527    2.8479   -2.0265 H   0  0  0  0  0  0  0  0  0  0  0  0
    0.3942    3.9623   -1.8421 C   0  0  0  0  0  0  0  0  0  0  0  0
   -0.4665    4.1320   -1.2026 H   0  0  0  0  0  0  0  0  0  0  0  0
    1.2390    4.5045   -1.4242 H   0  0  0  0  0  0  0  0  0  0  0  0
    0.1882    4.3486   -2.8372 H   0  0  0  0  0  0  0  0  0  0  0  0
    1.5690    0.6370    1.8797 B   0  0  0  0  0  0  0  0  0  0  0  0
    2.9398    0.7625    1.8948 O   0  0  0  0  0  0  0  0  0  0  0  0
    3.3116    2.0337    2.4461 C   0  0  0  0  0  0  0  0  0  0  0  0
    4.5642    1.8815    3.3076 C   0  0  0  0  0  0  0  0  0  0  0  0
    4.4370    1.0981    4.0471 H   0  0  0  0  0  0  0  0  0  0  0  0
    5.4044    1.6140    2.6719 H   0  0  0  0  0  0  0  0  0  0  0  0
    4.7891    2.8202    3.8068 H   0  0  0  0  0  0  0  0  0  0  0  0
    3.6148    2.9536    1.2573 C   0  0  0  0  0  0  0  0  0  0  0  0
    3.8933    3.9512    1.5842 H   0  0  0  0  0  0  0  0  0  0  0  0
    4.4363    2.5251    0.6875 H   0  0  0  0  0  0  0  0  0  0  0  0
    2.7427    2.9903    0.6096 H   0  0  0  0  0  0  0  0  0  0  0  0
    2.0219    2.4587    3.2262 C   0  0  0  0  0  0  0  0  0  0  0  0
    1.0038    1.6599    2.6097 O   0  0  0  0  0  0  0  0  0  0  0  0
    1.6512    3.9353    3.1012 C   0  0  0  0  0  0  0  0  0  0  0  0
    1.4291    4.1879    2.0698 H   0  0  0  0  0  0  0  0  0  0  0  0
    0.7643    4.1309    3.6989 H   0  0  0  0  0  0  0  0  0  0  0  0
    2.4634    4.5586    3.4657 H   0  0  0  0  0  0  0  0  0  0  0  0
    2.0637    2.0705    4.7095 C   0  0  0  0  0  0  0  0  0  0  0  0
    2.2807    1.0110    4.8075 H   0  0  0  0  0  0  0  0  0  0  0  0
    2.8040    2.6554    5.2468 H   0  0  0  0  0  0  0  0  0  0  0  0
    1.0839    2.2523    5.1451 H   0  0  0  0  0  0  0  0  0  0  0  0
    2.2782   -1.3309    0.1741 B   0  0  0  0  0  0  0  0  0  0  0  0
    3.1100   -2.3013    0.6932 O   0  0  0  0  0  0  0  0  0  0  0  0
    4.3907   -2.2584    0.0522 C   0  0  0  0  0  0  0  0  0  0  0  0
    5.3390   -1.5455    1.0225 C   0  0  0  0  0  0  0  0  0  0  0  0
    4.9162   -0.5783    1.2792 H   0  0  0  0  0  0  0  0  0  0  0  0
    5.4048   -2.1354    1.9333 H   0  0  0  0  0  0  0  0  0  0  0  0
    6.3329   -1.4329    0.6008 H   0  0  0  0  0  0  0  0  0  0  0  0
    4.8885   -3.6841   -0.1867 C   0  0  0  0  0  0  0  0  0  0  0  0
    5.0340   -4.1693    0.7748 H   0  0  0  0  0  0  0  0  0  0  0  0
    5.8352   -3.6652   -0.7194 H   0  0  0  0  0  0  0  0  0  0  0  0
    4.1670   -4.2661   -0.7503 H   0  0  0  0  0  0  0  0  0  0  0  0
    4.1021   -1.4285   -1.2489 C   0  0  0  0  0  0  0  0  0  0  0  0
    2.8542   -0.7856   -0.9505 O   0  0  0  0  0  0  0  0  0  0  0  0
    5.1478   -0.3623   -1.5723 C   0  0  0  0  0  0  0  0  0  0  0  0
    6.1252   -0.8181   -1.7041 H   0  0  0  0  0  0  0  0  0  0  0  0
    4.8681    0.1426   -2.4936 H   0  0  0  0  0  0  0  0  0  0  0  0
    5.1886    0.3776   -0.7806 H   0  0  0  0  0  0  0  0  0  0  0  0
    3.8772   -2.3021   -2.4907 C   0  0  0  0  0  0  0  0  0  0  0  0
    3.1014   -3.0380   -2.2977 H   0  0  0  0  0  0  0  0  0  0  0  0
    3.5394   -1.6663   -3.3056 H   0  0  0  0  0  0  0  0  0  0  0  0
    4.7939   -2.8017   -2.7890 H   0  0  0  0  0  0  0  0  0  0  0  0
   -3.2933   -3.7156   -2.8931 H   0  0  0  0  0  0  0  0  0  0  0  0
   -5.0494    1.7629    0.9437 H   0  0  0  0  0  0  0  0  0  0  0  0
    0.2359   -1.6814    2.9603 C   0  0  0  0  0  0  0  0  0  0  0  0
   -1.0511   -2.0467    3.3417 C   0  0  0  0  0  0  0  0  0  0  0  0
    1.2076   -1.5625    3.9507 C   0  0  0  0  0  0  0  0  0  0  0  0
   -1.3735   -2.1865    4.6830 C   0  0  0  0  0  0  0  0  0  0  0  0
   -1.8189   -2.2299    2.6024 H   0  0  0  0  0  0  0  0  0  0  0  0
    0.9018   -1.7161    5.2963 C   0  0  0  0  0  0  0  0  0  0  0  0
    2.2258   -1.3551    3.6547 H   0  0  0  0  0  0  0  0  0  0  0  0
   -0.4086   -2.0144    5.6573 C   0  0  0  0  0  0  0  0  0  0  0  0
   -2.3852   -2.4459    4.9663 H   0  0  0  0  0  0  0  0  0  0  0  0
    1.9595   -1.5756    6.3527 C   0  0  0  0  0  0  0  0  0  0  0  0
   -0.6643   -2.1335    6.7010 H   0  0  0  0  0  0  0  0  0  0  0  0
    2.9490   -1.5445    5.9042 H   0  0  0  0  0  0  0  0  0  0  0  0
    1.9158   -2.4111    7.0494 H   0  0  0  0  0  0  0  0  0  0  0  0
    1.8057   -0.6586    6.9214 H   0  0  0  0  0  0  0  0  0  0  0  0
  1  2  4  0  0  0  0
  2  3  4  0  0  0  0
  3  4  4  0  0  0  0
  4  5  4  0  0  0  0
  1  6  4  0  0  0  0
  5  6  4  0  0  0  0
  6  7  1  0  0  0  0
  5  8  1  0  0  0  0
  3  9  1  0  0  0  0
  2 10  1  0  0  0  0
 10 11  4  0  0  0  0
 11 12  4  0  0  0  0
 12 13  4  0  0  0  0
 13 14  4  0  0  0  0
 10 15  4  0  0  0  0
 14 15  4  0  0  0  0
 15 16  1  0  0  0  0
 13 17  1  0  0  0  0
 12 18  1  0  0  0  0
  1 19  1  0  0  0  0
 11 19  1  0  0  0  0
 19 20  1  0  0  0  0
 19 21  1  0  0  0  0
 21 22  1  0  0  0  0
 22 23  1  0  0  0  0
 23 24  1  0  0  0  0
 24 25  1  0  0  0  0
 24 26  1  0  0  0  0
 24 27  1  0  0  0  0
 23 28  1  0  0  0  0
 28 29  1  0  0  0  0
 28 30  1  0  0  0  0
 28 31  1  0  0  0  0
 23 32  1  0  0  0  0
 21 33  1  0  0  0  0
 32 33  1  0  0  0  0
 32 34  1  0  0  0  0
 34 35  1  0  0  0  0
 34 36  1  0  0  0  0
 34 37  1  0  0  0  0
 32 38  1  0  0  0  0
 38 39  1  0  0  0  0
 38 40  1  0  0  0  0
 38 41  1  0  0  0  0
 19 42  1  0  0  0  0
 42 43  1  0  0  0  0
 43 44  1  0  0  0  0
 44 45  1  0  0  0  0
 45 46  1  0  0  0  0
 45 47  1  0  0  0  0
 45 48  1  0  0  0  0
 44 49  1  0  0  0  0
 49 50  1  0  0  0  0
 49 51  1  0  0  0  0
 49 52  1  0  0  0  0
 44 53  1  0  0  0  0
 42 54  1  0  0  0  0
 53 54  1  0  0  0  0
 53 55  1  0  0  0  0
 55 56  1  0  0  0  0
 55 57  1  0  0  0  0
 55 58  1  0  0  0  0
 53 59  1  0  0  0  0
 59 60  1  0  0  0  0
 59 61  1  0  0  0  0
 59 62  1  0  0  0  0
 19 63  1  0  0  0  0
 63 64  1  0  0  0  0
 64 65  1  0  0  0  0
 65 66  1  0  0  0  0
 66 67  1  0  0  0  0
 66 68  1  0  0  0  0
 66 69  1  0  0  0  0
 65 70  1  0  0  0  0
 70 71  1  0  0  0  0
 70 72  1  0  0  0  0
 70 73  1  0  0  0  0
 65 74  1  0  0  0  0
 63 75  1  0  0  0  0
 74 75  1  0  0  0  0
 74 76  1  0  0  0  0
 76 77  1  0  0  0  0
 76 78  1  0  0  0  0
 76 79  1  0  0  0  0
 74 80  1  0  0  0  0
 80 81  1  0  0  0  0
 80 82  1  0  0  0  0
 80 83  1  0  0  0  0
  4 84  1  0  0  0  0
 14 85  1  0  0  0  0
 19 86  1  0  0  0  0
 20 86  1  0  0  0  0
 86 87  4  0  0  0  0
 86 88  4  0  0  0  0
 87 89  4  0  0  0  0
 87 90  1  0  0  0  0
 88 91  4  0  0  0  0
 88 92  1  0  0  0  0
 89 93  4  0  0  0  0
 91 93  4  0  0  0  0
 89 94  1  0  0  0  0
 91 95  1  0  0  0  0
 93 96  1  0  0  0  0
 95 97  1  0  0  0  0
 95 98  1  0  0  0  0
 95 99  1  0  0  0  0
M  END
