
  xtb     01142213093D
 xtb: 6.4.1 (1a32961)
111120  0     0  0            999 V2000
   -0.8544   -1.8257   -0.5941 N   0  0  0  0  0  0  0  0  0  0  0  0
   -2.0115   -1.1912   -0.8639 C   0  0  0  0  0  0  0  0  0  0  0  0
   -2.7546   -1.5035   -2.0086 C   0  0  0  0  0  0  0  0  0  0  0  0
   -2.3162   -2.4903   -2.8629 C   0  0  0  0  0  0  0  0  0  0  0  0
   -1.1354   -3.1617   -2.5543 C   0  0  0  0  0  0  0  0  0  0  0  0
   -0.4474   -2.7843   -1.4210 C   0  0  0  0  0  0  0  0  0  0  0  0
    0.4778   -3.2711   -1.1464 H   0  0  0  0  0  0  0  0  0  0  0  0
   -0.7632   -3.9530   -3.1849 H   0  0  0  0  0  0  0  0  0  0  0  0
   -3.6651   -0.9719   -2.2311 H   0  0  0  0  0  0  0  0  0  0  0  0
   -2.4302   -0.1737    0.0901 C   0  0  0  0  0  0  0  0  0  0  0  0
   -1.5578    0.1227    1.0778 N   0  0  0  0  0  0  0  0  0  0  0  0
   -1.9019    1.0432    1.9772 C   0  0  0  0  0  0  0  0  0  0  0  0
   -3.1039    1.7167    1.9568 C   0  0  0  0  0  0  0  0  0  0  0  0
   -4.0162    1.4176    0.9483 C   0  0  0  0  0  0  0  0  0  0  0  0
   -3.6726    0.4667    0.0133 C   0  0  0  0  0  0  0  0  0  0  0  0
   -4.3737    0.2043   -0.7617 H   0  0  0  0  0  0  0  0  0  0  0  0
   -3.3316    2.4448    2.7181 H   0  0  0  0  0  0  0  0  0  0  0  0
   -1.1659    1.2377    2.7421 H   0  0  0  0  0  0  0  0  0  0  0  0
    0.4215   -0.8165    0.9133 Ir  0  0  0  0  0  0  0  0  0  0  0  0
    0.8726   -2.2303    1.5405 H   0  0  0  0  0  0  0  0  0  0  0  0
    0.5961    0.6827   -0.5464 B   0  0  0  0  0  0  0  0  0  0  0  0
   -0.0701    0.5594   -1.7507 O   0  0  0  0  0  0  0  0  0  0  0  0
    0.0439    1.7706   -2.5057 C   0  0  0  0  0  0  0  0  0  0  0  0
    0.2564    1.4328   -3.9794 C   0  0  0  0  0  0  0  0  0  0  0  0
    1.0878    0.7464   -4.1002 H   0  0  0  0  0  0  0  0  0  0  0  0
    0.4436    2.3393   -4.5491 H   0  0  0  0  0  0  0  0  0  0  0  0
   -0.6395    0.9525   -4.3658 H   0  0  0  0  0  0  0  0  0  0  0  0
   -1.2839    2.5246   -2.3461 C   0  0  0  0  0  0  0  0  0  0  0  0
   -1.2882    3.4413   -2.9282 H   0  0  0  0  0  0  0  0  0  0  0  0
   -2.0915    1.8814   -2.6900 H   0  0  0  0  0  0  0  0  0  0  0  0
   -1.4605    2.7527   -1.2969 H   0  0  0  0  0  0  0  0  0  0  0  0
    1.2432    2.4950   -1.8097 C   0  0  0  0  0  0  0  0  0  0  0  0
    1.2633    1.8843   -0.5108 O   0  0  0  0  0  0  0  0  0  0  0  0
    2.5884    2.1715   -2.4707 C   0  0  0  0  0  0  0  0  0  0  0  0
    2.7265    1.0935   -2.4834 H   0  0  0  0  0  0  0  0  0  0  0  0
    2.6437    2.5777   -3.4763 H   0  0  0  0  0  0  0  0  0  0  0  0
    3.3861    2.6031   -1.8704 H   0  0  0  0  0  0  0  0  0  0  0  0
    1.0939    4.0089   -1.6724 C   0  0  0  0  0  0  0  0  0  0  0  0
    0.2413    4.2668   -1.0520 H   0  0  0  0  0  0  0  0  0  0  0  0
    1.9885    4.4134   -1.2048 H   0  0  0  0  0  0  0  0  0  0  0  0
    0.9794    4.4607   -2.6544 H   0  0  0  0  0  0  0  0  0  0  0  0
    1.5589    0.5909    1.9490 B   0  0  0  0  0  0  0  0  0  0  0  0
    2.9212    0.6065    2.0982 O   0  0  0  0  0  0  0  0  0  0  0  0
    3.3489    1.8466    2.6782 C   0  0  0  0  0  0  0  0  0  0  0  0
    4.4182    1.5683    3.7340 C   0  0  0  0  0  0  0  0  0  0  0  0
    4.0527    0.8757    4.4841 H   0  0  0  0  0  0  0  0  0  0  0  0
    5.2813    1.1190    3.2499 H   0  0  0  0  0  0  0  0  0  0  0  0
    4.7249    2.4953    4.2105 H   0  0  0  0  0  0  0  0  0  0  0  0
    3.9609    2.6711    1.5392 C   0  0  0  0  0  0  0  0  0  0  0  0
    4.2758    3.6528    1.8793 H   0  0  0  0  0  0  0  0  0  0  0  0
    4.8270    2.1389    1.1520 H   0  0  0  0  0  0  0  0  0  0  0  0
    3.2326    2.7587    0.7375 H   0  0  0  0  0  0  0  0  0  0  0  0
    2.0115    2.4545    3.2340 C   0  0  0  0  0  0  0  0  0  0  0  0
    1.0022    1.6828    2.5670 O   0  0  0  0  0  0  0  0  0  0  0  0
    1.7993    3.9324    2.9083 C   0  0  0  0  0  0  0  0  0  0  0  0
    1.7505    4.0797    1.8346 H   0  0  0  0  0  0  0  0  0  0  0  0
    0.8562    4.2590    3.3391 H   0  0  0  0  0  0  0  0  0  0  0  0
    2.6028    4.5313    3.3277 H   0  0  0  0  0  0  0  0  0  0  0  0
    1.8210    2.2333    4.7395 C   0  0  0  0  0  0  0  0  0  0  0  0
    1.8759    1.1724    4.9665 H   0  0  0  0  0  0  0  0  0  0  0  0
    2.5643    2.7786    5.3127 H   0  0  0  0  0  0  0  0  0  0  0  0
    0.8308    2.5844    5.0207 H   0  0  0  0  0  0  0  0  0  0  0  0
    2.2782   -1.3309    0.1741 B   0  0  0  0  0  0  0  0  0  0  0  0
    3.1280   -2.2133    0.8084 O   0  0  0  0  0  0  0  0  0  0  0  0
    4.3735   -2.3094    0.1076 C   0  0  0  0  0  0  0  0  0  0  0  0
    5.3824   -1.4545    0.8815 C   0  0  0  0  0  0  0  0  0  0  0  0
    4.9872   -0.4478    0.9811 H   0  0  0  0  0  0  0  0  0  0  0  0
    5.4889   -1.8708    1.8799 H   0  0  0  0  0  0  0  0  0  0  0  0
    6.3533   -1.4426    0.3960 H   0  0  0  0  0  0  0  0  0  0  0  0
    4.8407   -3.7651    0.1009 C   0  0  0  0  0  0  0  0  0  0  0  0
    5.0504   -4.0698    1.1227 H   0  0  0  0  0  0  0  0  0  0  0  0
    5.7463   -3.8658   -0.4906 H   0  0  0  0  0  0  0  0  0  0  0  0
    4.0740   -4.4235   -0.2934 H   0  0  0  0  0  0  0  0  0  0  0  0
    4.0186   -1.7192   -1.3011 C   0  0  0  0  0  0  0  0  0  0  0  0
    2.8143   -0.9752   -1.0439 O   0  0  0  0  0  0  0  0  0  0  0  0
    5.0785   -0.7907   -1.8898 C   0  0  0  0  0  0  0  0  0  0  0  0
    6.0251   -1.3162   -1.9820 H   0  0  0  0  0  0  0  0  0  0  0  0
    4.7622   -0.4657   -2.8778 H   0  0  0  0  0  0  0  0  0  0  0  0
    5.2052    0.0879   -1.2668 H   0  0  0  0  0  0  0  0  0  0  0  0
    3.6682   -2.7983   -2.3346 C   0  0  0  0  0  0  0  0  0  0  0  0
    2.8998   -3.4585   -1.9419 H   0  0  0  0  0  0  0  0  0  0  0  0
    3.2716   -2.3134   -3.2233 H   0  0  0  0  0  0  0  0  0  0  0  0
    4.5457   -3.3765   -2.6074 H   0  0  0  0  0  0  0  0  0  0  0  0
   -2.8791   -2.7388   -3.7498 H   0  0  0  0  0  0  0  0  0  0  0  0
   -4.9750    1.9112    0.9023 H   0  0  0  0  0  0  0  0  0  0  0  0
    0.2359   -1.6814    2.9603 C   0  0  0  0  0  0  0  0  0  0  0  0
   -1.0444   -1.8059    3.5184 C   0  0  0  0  0  0  0  0  0  0  0  0
    1.3139   -1.6370    3.8512 C   0  0  0  0  0  0  0  0  0  0  0  0
   -2.2515   -2.0207    2.7498 C   0  0  0  0  0  0  0  0  0  0  0  0
   -1.2179   -1.7278    4.9081 C   0  0  0  0  0  0  0  0  0  0  0  0
    1.1542   -1.6109    5.2271 C   0  0  0  0  0  0  0  0  0  0  0  0
    2.3104   -1.6096    3.4360 H   0  0  0  0  0  0  0  0  0  0  0  0
   -3.4280   -1.5732    3.0727 N   0  0  0  0  0  0  0  0  0  0  0  0
   -2.2320   -2.8127    1.6415 O   0  0  0  0  0  0  0  0  0  0  0  0
   -0.1393   -1.6237    5.7524 C   0  0  0  0  0  0  0  0  0  0  0  0
   -2.2250   -1.7707    5.2949 H   0  0  0  0  0  0  0  0  0  0  0  0
    2.3372   -1.5752    6.1475 C   0  0  0  0  0  0  0  0  0  0  0  0
   -4.2801   -2.0606    2.1131 C   0  0  0  0  0  0  0  0  0  0  0  0
   -3.5230   -2.8463    1.2208 C   0  0  0  0  0  0  0  0  0  0  0  0
   -0.2900   -1.5733    6.8206 H   0  0  0  0  0  0  0  0  0  0  0  0
    2.3843   -2.4948    6.7296 H   0  0  0  0  0  0  0  0  0  0  0  0
    2.2530   -0.7455    6.8478 H   0  0  0  0  0  0  0  0  0  0  0  0
    3.2596   -1.4748    5.5826 H   0  0  0  0  0  0  0  0  0  0  0  0
   -5.6444   -1.8922    1.9200 C   0  0  0  0  0  0  0  0  0  0  0  0
   -4.0937   -3.4960    0.1444 C   0  0  0  0  0  0  0  0  0  0  0  0
   -6.2110   -2.5282    0.8328 C   0  0  0  0  0  0  0  0  0  0  0  0
   -6.2240   -1.2875    2.5979 H   0  0  0  0  0  0  0  0  0  0  0  0
   -5.4548   -3.3173   -0.0332 C   0  0  0  0  0  0  0  0  0  0  0  0
   -3.5028   -4.1051   -0.5204 H   0  0  0  0  0  0  0  0  0  0  0  0
   -7.2690   -2.4171    0.6489 H   0  0  0  0  0  0  0  0  0  0  0  0
   -5.9431   -3.8031   -0.8639 H   0  0  0  0  0  0  0  0  0  0  0  0
  1  2  4  0  0  0  0
  2  3  4  0  0  0  0
  3  4  4  0  0  0  0
  4  5  4  0  0  0  0
  1  6  4  0  0  0  0
  5  6  4  0  0  0  0
  6  7  1  0  0  0  0
  5  8  1  0  0  0  0
  3  9  1  0  0  0  0
  2 10  1  0  0  0  0
 10 11  4  0  0  0  0
 11 12  4  0  0  0  0
 12 13  4  0  0  0  0
 13 14  4  0  0  0  0
 10 15  4  0  0  0  0
 14 15  4  0  0  0  0
 15 16  1  0  0  0  0
 13 17  1  0  0  0  0
 12 18  1  0  0  0  0
  1 19  1  0  0  0  0
 11 19  1  0  0  0  0
 19 20  1  0  0  0  0
 19 21  1  0  0  0  0
 21 22  1  0  0  0  0
 22 23  1  0  0  0  0
 23 24  1  0  0  0  0
 24 25  1  0  0  0  0
 24 26  1  0  0  0  0
 24 27  1  0  0  0  0
 23 28  1  0  0  0  0
 28 29  1  0  0  0  0
 28 30  1  0  0  0  0
 28 31  1  0  0  0  0
 23 32  1  0  0  0  0
 21 33  1  0  0  0  0
 32 33  1  0  0  0  0
 32 34  1  0  0  0  0
 34 35  1  0  0  0  0
 34 36  1  0  0  0  0
 34 37  1  0  0  0  0
 32 38  1  0  0  0  0
 38 39  1  0  0  0  0
 38 40  1  0  0  0  0
 38 41  1  0  0  0  0
 19 42  1  0  0  0  0
 42 43  1  0  0  0  0
 43 44  1  0  0  0  0
 44 45  1  0  0  0  0
 45 46  1  0  0  0  0
 45 47  1  0  0  0  0
 45 48  1  0  0  0  0
 44 49  1  0  0  0  0
 49 50  1  0  0  0  0
 49 51  1  0  0  0  0
 49 52  1  0  0  0  0
 44 53  1  0  0  0  0
 42 54  1  0  0  0  0
 53 54  1  0  0  0  0
 53 55  1  0  0  0  0
 55 56  1  0  0  0  0
 55 57  1  0  0  0  0
 55 58  1  0  0  0  0
 53 59  1  0  0  0  0
 59 60  1  0  0  0  0
 59 61  1  0  0  0  0
 59 62  1  0  0  0  0
 19 63  1  0  0  0  0
 63 64  1  0  0  0  0
 64 65  1  0  0  0  0
 65 66  1  0  0  0  0
 66 67  1  0  0  0  0
 66 68  1  0  0  0  0
 66 69  1  0  0  0  0
 65 70  1  0  0  0  0
 70 71  1  0  0  0  0
 70 72  1  0  0  0  0
 70 73  1  0  0  0  0
 65 74  1  0  0  0  0
 63 75  1  0  0  0  0
 74 75  1  0  0  0  0
 74 76  1  0  0  0  0
 76 77  1  0  0  0  0
 76 78  1  0  0  0  0
 76 79  1  0  0  0  0
 74 80  1  0  0  0  0
 80 81  1  0  0  0  0
 80 82  1  0  0  0  0
 80 83  1  0  0  0  0
  4 84  1  0  0  0  0
 14 85  1  0  0  0  0
 19 86  1  0  0  0  0
 20 86  1  0  0  0  0
 86 87  4  0  0  0  0
 86 88  4  0  0  0  0
 87 89  1  0  0  0  0
 87 90  4  0  0  0  0
 88 91  4  0  0  0  0
 88 92  1  0  0  0  0
 89 93  2  0  0  0  0
 89 94  1  0  0  0  0
 90 95  4  0  0  0  0
 91 95  4  0  0  0  0
 90 96  1  0  0  0  0
 91 97  1  0  0  0  0
 93 98  1  0  0  0  0
 94 99  1  0  0  0  0
 98 99  4  0  0  0  0
 95100  1  0  0  0  0
 97101  1  0  0  0  0
 97102  1  0  0  0  0
 97103  1  0  0  0  0
 98104  4  0  0  0  0
 99105  4  0  0  0  0
104106  4  0  0  0  0
104107  1  0  0  0  0
105108  4  0  0  0  0
106108  4  0  0  0  0
105109  1  0  0  0  0
106110  1  0  0  0  0
108111  1  0  0  0  0
M  END
