   14
Created with kallisto
C      0.9789   -1.4183   -0.0169
C     -0.1897   -0.6870   -0.0096
C      2.1858   -0.7134   -0.0054
O     -1.4488   -1.1998   -0.0040
C     -0.1832    0.6880   -0.0031
C      2.1926    0.6927    0.0062
H      3.1283   -1.2567   -0.0057
C     -2.2305    0.0101    0.0803
O     -1.4385    1.2127    0.0004
C      0.9910    1.4087    0.0025
H      3.1396    1.2268    0.0207
H     -2.7679    0.0117    1.0364
H     -2.9642    0.0136   -0.7340
H      0.9826    2.4928    0.0113
