   22
Created with kallisto
C      4.1171    1.6813    0.6089
N      3.2069    1.7806   -0.4133
C      5.3196    1.2806    0.0693
C      1.8144    2.1861   -0.2663
C      3.8264    1.4847   -1.6018
C      5.1356    1.1546   -1.3282
H      6.2319    1.0991    0.6226
C      0.9055    0.9919   -0.1202
H      1.7433    2.8461    0.6064
H      1.5434    2.7842   -1.1443
H      3.2871    1.5167   -2.5391
H      5.8776    0.8565   -2.0574
C      0.6098    0.4698    1.1477
C      0.3682    0.3625   -1.2533
C     -0.2083   -0.6543    1.2785
H      1.0226    0.9295    2.0431
C     -0.4482   -0.7615   -1.1206
H      0.5918    0.7378   -2.2495
C     -0.7355   -1.2698    0.1449
H     -0.4272   -1.0550    2.2645
H     -0.8531   -1.2464   -2.0048
H     -1.3642   -2.1505    0.2468
