   23
Created with kallisto
C      1.0749   -6.0970    0.2512
C      0.2091   -5.7584    1.2894
C      1.2152   -5.2442   -0.8414
C     -0.5250   -4.5720    1.2309
H      0.0961   -6.4259    2.1400
C      0.4813   -4.0573   -0.9017
H      1.8866   -5.5067   -1.6543
C     -0.4021   -3.7095    0.1311
H     -1.2097   -4.3366    2.0423
H      0.5897   -3.4082   -1.7689
C     -1.2731   -2.4778    0.0182
C     -0.5387   -1.1600   -0.0813
H     -1.9120   -2.5936   -0.8674
H     -1.9682   -2.4289    0.8670
N     -0.2264   -0.7152   -1.3272
C     -0.2481   -0.4208    1.0643
C      0.3762    0.4898   -1.4261
C      0.3597    0.8244    0.9279
H     -0.5081   -0.7958    2.0494
C      0.6785    1.2933   -0.3411
H      0.6120    0.8054   -2.4387
H      0.5762    1.4285    1.8042
H      1.1488    2.2591   -0.4812
