
  xtb     10082107343D
 xtb: 6.4.0 (f63f532)
 99106  0     0  0            999 V2000
   -0.9510   -2.0106   -0.3533 N   0  0  0  0  0  0  0  0  0  0  0  0
   -2.1877   -1.5067   -0.5268 C   0  0  0  0  0  0  0  0  0  0  0  0
   -3.0824   -2.0931   -1.4318 C   0  0  0  0  0  0  0  0  0  0  0  0
   -2.6933   -3.1904   -2.1678 C   0  0  0  0  0  0  0  0  0  0  0  0
   -1.4067   -3.6926   -1.9862 C   0  0  0  0  0  0  0  0  0  0  0  0
   -0.5855   -3.0694   -1.0703 C   0  0  0  0  0  0  0  0  0  0  0  0
    0.4174   -3.4298   -0.8890 H   0  0  0  0  0  0  0  0  0  0  0  0
   -1.0586   -4.5485   -2.5410 H   0  0  0  0  0  0  0  0  0  0  0  0
   -4.0754   -1.6944   -1.5580 H   0  0  0  0  0  0  0  0  0  0  0  0
   -2.5212   -0.3304    0.2654 C   0  0  0  0  0  0  0  0  0  0  0  0
   -1.5724    0.1084    1.1209 N   0  0  0  0  0  0  0  0  0  0  0  0
   -1.8361    1.1755    1.8732 C   0  0  0  0  0  0  0  0  0  0  0  0
   -3.0250    1.8724    1.8166 C   0  0  0  0  0  0  0  0  0  0  0  0
   -4.0044    1.4468    0.9223 C   0  0  0  0  0  0  0  0  0  0  0  0
   -3.7456    0.3390    0.1448 C   0  0  0  0  0  0  0  0  0  0  0  0
   -4.4900   -0.0028   -0.5550 H   0  0  0  0  0  0  0  0  0  0  0  0
   -3.1868    2.7253    2.4555 H   0  0  0  0  0  0  0  0  0  0  0  0
   -1.0441    1.4721    2.5436 H   0  0  0  0  0  0  0  0  0  0  0  0
    0.4215   -0.8165    0.9133 Ir  0  0  0  0  0  0  0  0  0  0  0  0
    0.8726   -2.2303    1.5405 H   0  0  0  0  0  0  0  0  0  0  0  0
    0.3809    0.6079   -0.6085 B   0  0  0  0  0  0  0  0  0  0  0  0
   -0.1548    0.2793   -1.8385 O   0  0  0  0  0  0  0  0  0  0  0  0
   -0.2626    1.4499   -2.6571 C   0  0  0  0  0  0  0  0  0  0  0  0
    0.1398    1.1108   -4.0901 C   0  0  0  0  0  0  0  0  0  0  0  0
    1.1061    0.6179   -4.1088 H   0  0  0  0  0  0  0  0  0  0  0  0
    0.1772    2.0145   -4.6929 H   0  0  0  0  0  0  0  0  0  0  0  0
   -0.5958    0.4332   -4.5167 H   0  0  0  0  0  0  0  0  0  0  0  0
   -1.7353    1.8839   -2.6345 C   0  0  0  0  0  0  0  0  0  0  0  0
   -1.8999    2.7423   -3.2792 H   0  0  0  0  0  0  0  0  0  0  0  0
   -2.3481    1.0551   -2.9836 H   0  0  0  0  0  0  0  0  0  0  0  0
   -2.0405    2.1248   -1.6180 H   0  0  0  0  0  0  0  0  0  0  0  0
    0.6792    2.4626   -1.9273 C   0  0  0  0  0  0  0  0  0  0  0  0
    0.7158    1.9440   -0.5902 O   0  0  0  0  0  0  0  0  0  0  0  0
    2.1161    2.4094   -2.4601 C   0  0  0  0  0  0  0  0  0  0  0  0
    2.4831    1.3882   -2.3892 H   0  0  0  0  0  0  0  0  0  0  0  0
    2.1736    2.7684   -3.4837 H   0  0  0  0  0  0  0  0  0  0  0  0
    2.7461    3.0328   -1.8302 H   0  0  0  0  0  0  0  0  0  0  0  0
    0.1906    3.9095   -1.9148 C   0  0  0  0  0  0  0  0  0  0  0  0
   -0.7518    4.0045   -1.3842 H   0  0  0  0  0  0  0  0  0  0  0  0
    0.9276    4.5296   -1.4100 H   0  0  0  0  0  0  0  0  0  0  0  0
    0.0708    4.2689   -2.9336 H   0  0  0  0  0  0  0  0  0  0  0  0
    1.5971    0.6593    1.8319 B   0  0  0  0  0  0  0  0  0  0  0  0
    2.9002    1.0170    1.5956 O   0  0  0  0  0  0  0  0  0  0  0  0
    3.2354    2.2225    2.2976 C   0  0  0  0  0  0  0  0  0  0  0  0
    4.5911    2.0461    2.9840 C   0  0  0  0  0  0  0  0  0  0  0  0
    4.5991    1.1575    3.6070 H   0  0  0  0  0  0  0  0  0  0  0  0
    5.3610    1.9325    2.2247 H   0  0  0  0  0  0  0  0  0  0  0  0
    4.8231    2.9185    3.5881 H   0  0  0  0  0  0  0  0  0  0  0  0
    3.3459    3.3271    1.2402 C   0  0  0  0  0  0  0  0  0  0  0  0
    3.5601    4.2909    1.6920 H   0  0  0  0  0  0  0  0  0  0  0  0
    4.1516    3.0696    0.5562 H   0  0  0  0  0  0  0  0  0  0  0  0
    2.4224    3.3694    0.6695 H   0  0  0  0  0  0  0  0  0  0  0  0
    2.0242    2.4178    3.2814 C   0  0  0  0  0  0  0  0  0  0  0  0
    1.0539    1.4820    2.7932 O   0  0  0  0  0  0  0  0  0  0  0  0
    1.4029    3.8158    3.2612 C   0  0  0  0  0  0  0  0  0  0  0  0
    1.0229    4.0548    2.2734 H   0  0  0  0  0  0  0  0  0  0  0  0
    0.5715    3.8395    3.9616 H   0  0  0  0  0  0  0  0  0  0  0  0
    2.1349    4.5595    3.5635 H   0  0  0  0  0  0  0  0  0  0  0  0
    2.3356    2.0407    4.7351 C   0  0  0  0  0  0  0  0  0  0  0  0
    2.7240    1.0288    4.7930 H   0  0  0  0  0  0  0  0  0  0  0  0
    3.0484    2.7339    5.1708 H   0  0  0  0  0  0  0  0  0  0  0  0
    1.4112    2.0768    5.3070 H   0  0  0  0  0  0  0  0  0  0  0  0
    2.2782   -1.3309    0.1741 B   0  0  0  0  0  0  0  0  0  0  0  0
    3.1479   -2.2589    0.7081 O   0  0  0  0  0  0  0  0  0  0  0  0
    4.4075   -2.2075    0.0262 C   0  0  0  0  0  0  0  0  0  0  0  0
    5.3494   -1.3793    0.9070 C   0  0  0  0  0  0  0  0  0  0  0  0
    4.9096   -0.3993    1.0724 H   0  0  0  0  0  0  0  0  0  0  0  0
    5.4411   -1.8711    1.8729 H   0  0  0  0  0  0  0  0  0  0  0  0
    6.3346   -1.2866    0.4607 H   0  0  0  0  0  0  0  0  0  0  0  0
    4.9652   -3.6217   -0.1260 C   0  0  0  0  0  0  0  0  0  0  0  0
    5.1819   -4.0202    0.8616 H   0  0  0  0  0  0  0  0  0  0  0  0
    5.8831   -3.5993   -0.7068 H   0  0  0  0  0  0  0  0  0  0  0  0
    4.2483   -4.2803   -0.6050 H   0  0  0  0  0  0  0  0  0  0  0  0
    4.0398   -1.4868   -1.3164 C   0  0  0  0  0  0  0  0  0  0  0  0
    2.8047   -0.8287   -0.9955 O   0  0  0  0  0  0  0  0  0  0  0  0
    5.0585   -0.4503   -1.7863 C   0  0  0  0  0  0  0  0  0  0  0  0
    6.0353   -0.9103   -1.9080 H   0  0  0  0  0  0  0  0  0  0  0  0
    4.7403   -0.0441   -2.7434 H   0  0  0  0  0  0  0  0  0  0  0  0
    5.1222    0.3662   -1.0751 H   0  0  0  0  0  0  0  0  0  0  0  0
    3.7480   -2.4644   -2.4630 C   0  0  0  0  0  0  0  0  0  0  0  0
    3.0074   -3.1963   -2.1520 H   0  0  0  0  0  0  0  0  0  0  0  0
    3.3356   -1.9059   -3.3000 H   0  0  0  0  0  0  0  0  0  0  0  0
    4.6536   -2.9695   -2.7848 H   0  0  0  0  0  0  0  0  0  0  0  0
   -3.3720   -3.6494   -2.8706 H   0  0  0  0  0  0  0  0  0  0  0  0
   -4.9448    1.9703    0.8385 H   0  0  0  0  0  0  0  0  0  0  0  0
    0.2359   -1.6814    2.9603 C   0  0  0  0  0  0  0  0  0  0  0  0
   -1.0759   -2.0061    3.3097 C   0  0  0  0  0  0  0  0  0  0  0  0
    1.1569   -1.6198    4.0005 C   0  0  0  0  0  0  0  0  0  0  0  0
   -1.4856   -2.1498    4.6279 C   0  0  0  0  0  0  0  0  0  0  0  0
   -1.8108   -2.1565    2.5306 H   0  0  0  0  0  0  0  0  0  0  0  0
    0.7799   -1.7562    5.3276 C   0  0  0  0  0  0  0  0  0  0  0  0
    2.8359   -1.3968    3.6456 Cl  0  0  0  0  0  0  0  0  0  0  0  0
   -2.9125   -2.4690    4.9659 C   0  0  0  0  0  0  0  0  0  0  0  0
   -0.5430   -2.0040    5.6400 C   0  0  0  0  0  0  0  0  0  0  0  0
    1.5266   -1.6816    6.1017 H   0  0  0  0  0  0  0  0  0  0  0  0
   -3.5023   -2.6187    4.0651 H   0  0  0  0  0  0  0  0  0  0  0  0
   -3.3548   -1.6557    5.5399 H   0  0  0  0  0  0  0  0  0  0  0  0
   -2.9648   -3.3718    5.5723 H   0  0  0  0  0  0  0  0  0  0  0  0
   -0.8406   -2.1088    6.6727 H   0  0  0  0  0  0  0  0  0  0  0  0
  1  2  4  0  0  0  0
  2  3  4  0  0  0  0
  3  4  4  0  0  0  0
  4  5  4  0  0  0  0
  1  6  4  0  0  0  0
  5  6  4  0  0  0  0
  6  7  1  0  0  0  0
  5  8  1  0  0  0  0
  3  9  1  0  0  0  0
  2 10  1  0  0  0  0
 10 11  4  0  0  0  0
 11 12  4  0  0  0  0
 12 13  4  0  0  0  0
 13 14  4  0  0  0  0
 10 15  4  0  0  0  0
 14 15  4  0  0  0  0
 15 16  1  0  0  0  0
 13 17  1  0  0  0  0
 12 18  1  0  0  0  0
  1 19  1  0  0  0  0
 11 19  1  0  0  0  0
 19 20  1  0  0  0  0
 19 21  1  0  0  0  0
 21 22  1  0  0  0  0
 22 23  1  0  0  0  0
 23 24  1  0  0  0  0
 24 25  1  0  0  0  0
 24 26  1  0  0  0  0
 24 27  1  0  0  0  0
 23 28  1  0  0  0  0
 28 29  1  0  0  0  0
 28 30  1  0  0  0  0
 28 31  1  0  0  0  0
 23 32  1  0  0  0  0
 21 33  1  0  0  0  0
 32 33  1  0  0  0  0
 32 34  1  0  0  0  0
 34 35  1  0  0  0  0
 34 36  1  0  0  0  0
 34 37  1  0  0  0  0
 32 38  1  0  0  0  0
 38 39  1  0  0  0  0
 38 40  1  0  0  0  0
 38 41  1  0  0  0  0
 19 42  1  0  0  0  0
 42 43  1  0  0  0  0
 43 44  1  0  0  0  0
 44 45  1  0  0  0  0
 45 46  1  0  0  0  0
 45 47  1  0  0  0  0
 45 48  1  0  0  0  0
 44 49  1  0  0  0  0
 49 50  1  0  0  0  0
 49 51  1  0  0  0  0
 49 52  1  0  0  0  0
 44 53  1  0  0  0  0
 42 54  1  0  0  0  0
 53 54  1  0  0  0  0
 53 55  1  0  0  0  0
 55 56  1  0  0  0  0
 55 57  1  0  0  0  0
 55 58  1  0  0  0  0
 53 59  1  0  0  0  0
 59 60  1  0  0  0  0
 59 61  1  0  0  0  0
 59 62  1  0  0  0  0
 19 63  1  0  0  0  0
 63 64  1  0  0  0  0
 64 65  1  0  0  0  0
 65 66  1  0  0  0  0
 66 67  1  0  0  0  0
 66 68  1  0  0  0  0
 66 69  1  0  0  0  0
 65 70  1  0  0  0  0
 70 71  1  0  0  0  0
 70 72  1  0  0  0  0
 70 73  1  0  0  0  0
 65 74  1  0  0  0  0
 63 75  1  0  0  0  0
 74 75  1  0  0  0  0
 74 76  1  0  0  0  0
 76 77  1  0  0  0  0
 76 78  1  0  0  0  0
 76 79  1  0  0  0  0
 74 80  1  0  0  0  0
 80 81  1  0  0  0  0
 80 82  1  0  0  0  0
 80 83  1  0  0  0  0
  4 84  1  0  0  0  0
 14 85  1  0  0  0  0
 19 86  1  0  0  0  0
 20 86  1  0  0  0  0
 86 87  4  0  0  0  0
 86 88  4  0  0  0  0
 87 89  4  0  0  0  0
 87 90  1  0  0  0  0
 88 91  4  0  0  0  0
 88 92  1  0  0  0  0
 89 93  1  0  0  0  0
 89 94  4  0  0  0  0
 91 94  4  0  0  0  0
 91 95  1  0  0  0  0
 93 96  1  0  0  0  0
 93 97  1  0  0  0  0
 93 98  1  0  0  0  0
 94 99  1  0  0  0  0
M  END
