   14

C         -0.13627        1.15663       -0.00707
O         -1.01634        0.12067       -0.01079
C         -0.28310       -1.02132       -0.00596
C          1.05867       -0.72538        0.00048
C          1.16534        0.69744        0.00010
C          2.38005        1.49038        0.00609
O          3.49623        0.98645        0.01094
O          2.14706        2.83669        0.00606
C          3.34036        3.62429        0.01078
H         -0.58336        2.14149       -0.01019
H          1.87293       -1.43741        0.00515
H          3.05461        4.67994        0.01040
H          3.93488        3.42832       -0.88764
H          3.92843        3.42723        0.91316
