
  xtb     01142215293D
 xtb: 6.4.1 (1a32961)
 97104  0     0  0            999 V2000
   -0.9912   -2.0019   -0.3407 N   0  0  0  0  0  0  0  0  0  0  0  0
   -2.2186   -1.4780   -0.5118 C   0  0  0  0  0  0  0  0  0  0  0  0
   -3.1150   -2.0326   -1.4334 C   0  0  0  0  0  0  0  0  0  0  0  0
   -2.7362   -3.1228   -2.1870 C   0  0  0  0  0  0  0  0  0  0  0  0
   -1.4602   -3.6480   -2.0053 C   0  0  0  0  0  0  0  0  0  0  0  0
   -0.6352   -3.0531   -1.0727 C   0  0  0  0  0  0  0  0  0  0  0  0
    0.3609   -3.4309   -0.8908 H   0  0  0  0  0  0  0  0  0  0  0  0
   -1.1210   -4.4988   -2.5731 H   0  0  0  0  0  0  0  0  0  0  0  0
   -4.0998   -1.6153   -1.5622 H   0  0  0  0  0  0  0  0  0  0  0  0
   -2.5418   -0.3087    0.3005 C   0  0  0  0  0  0  0  0  0  0  0  0
   -1.5814    0.1221    1.1445 N   0  0  0  0  0  0  0  0  0  0  0  0
   -1.8273    1.1857    1.9059 C   0  0  0  0  0  0  0  0  0  0  0  0
   -3.0174    1.8841    1.8752 C   0  0  0  0  0  0  0  0  0  0  0  0
   -4.0131    1.4614    0.9995 C   0  0  0  0  0  0  0  0  0  0  0  0
   -3.7688    0.3587    0.2085 C   0  0  0  0  0  0  0  0  0  0  0  0
   -4.5281    0.0203   -0.4766 H   0  0  0  0  0  0  0  0  0  0  0  0
   -3.1669    2.7342    2.5207 H   0  0  0  0  0  0  0  0  0  0  0  0
   -1.0213    1.4781    2.5619 H   0  0  0  0  0  0  0  0  0  0  0  0
    0.4215   -0.8165    0.9133 Ir  0  0  0  0  0  0  0  0  0  0  0  0
    0.8726   -2.2303    1.5405 H   0  0  0  0  0  0  0  0  0  0  0  0
    0.3803    0.5925   -0.6168 B   0  0  0  0  0  0  0  0  0  0  0  0
   -0.1297    0.2572   -1.8542 O   0  0  0  0  0  0  0  0  0  0  0  0
   -0.2360    1.4280   -2.6741 C   0  0  0  0  0  0  0  0  0  0  0  0
    0.1953    1.0946   -4.0996 C   0  0  0  0  0  0  0  0  0  0  0  0
    1.1651    0.6087   -4.1003 H   0  0  0  0  0  0  0  0  0  0  0  0
    0.2374    1.9997   -4.7000 H   0  0  0  0  0  0  0  0  0  0  0  0
   -0.5273    0.4127   -4.5412 H   0  0  0  0  0  0  0  0  0  0  0  0
   -1.7135    1.8451   -2.6744 C   0  0  0  0  0  0  0  0  0  0  0  0
   -1.8783    2.7014   -3.3217 H   0  0  0  0  0  0  0  0  0  0  0  0
   -2.3109    1.0090   -3.0324 H   0  0  0  0  0  0  0  0  0  0  0  0
   -2.0367    2.0823   -1.6626 H   0  0  0  0  0  0  0  0  0  0  0  0
    0.6826    2.4492   -1.9264 C   0  0  0  0  0  0  0  0  0  0  0  0
    0.6958    1.9315   -0.5878 O   0  0  0  0  0  0  0  0  0  0  0  0
    2.1306    2.4052   -2.4280 C   0  0  0  0  0  0  0  0  0  0  0  0
    2.5013    1.3857   -2.3522 H   0  0  0  0  0  0  0  0  0  0  0  0
    2.2083    2.7687   -3.4484 H   0  0  0  0  0  0  0  0  0  0  0  0
    2.7429    3.0288   -1.7815 H   0  0  0  0  0  0  0  0  0  0  0  0
    0.1822    3.8918   -1.9257 C   0  0  0  0  0  0  0  0  0  0  0  0
   -0.7711    3.9801   -1.4139 H   0  0  0  0  0  0  0  0  0  0  0  0
    0.9042    4.5186   -1.4079 H   0  0  0  0  0  0  0  0  0  0  0  0
    0.0792    4.2487   -2.9472 H   0  0  0  0  0  0  0  0  0  0  0  0
    1.6184    0.6371    1.8289 B   0  0  0  0  0  0  0  0  0  0  0  0
    2.8921    1.0332    1.5473 O   0  0  0  0  0  0  0  0  0  0  0  0
    3.2510    2.2037    2.2972 C   0  0  0  0  0  0  0  0  0  0  0  0
    4.6026    1.9612    2.9720 C   0  0  0  0  0  0  0  0  0  0  0  0
    4.5937    1.0215    3.5156 H   0  0  0  0  0  0  0  0  0  0  0  0
    5.3730    1.8976    2.2078 H   0  0  0  0  0  0  0  0  0  0  0  0
    4.8459    2.7781    3.6447 H   0  0  0  0  0  0  0  0  0  0  0  0
    3.3884    3.3468    1.2852 C   0  0  0  0  0  0  0  0  0  0  0  0
    3.6178    4.2868    1.7776 H   0  0  0  0  0  0  0  0  0  0  0  0
    4.1946    3.1017    0.5978 H   0  0  0  0  0  0  0  0  0  0  0  0
    2.4716    3.4328    0.7094 H   0  0  0  0  0  0  0  0  0  0  0  0
    2.0449    2.3832    3.2943 C   0  0  0  0  0  0  0  0  0  0  0  0
    1.0974    1.4025    2.8482 O   0  0  0  0  0  0  0  0  0  0  0  0
    1.3667    3.7549    3.2365 C   0  0  0  0  0  0  0  0  0  0  0  0
    0.9686    3.9429    2.2446 H   0  0  0  0  0  0  0  0  0  0  0  0
    0.5407    3.7662    3.9438 H   0  0  0  0  0  0  0  0  0  0  0  0
    2.0672    4.5393    3.5068 H   0  0  0  0  0  0  0  0  0  0  0  0
    2.3844    2.0686    4.7558 C   0  0  0  0  0  0  0  0  0  0  0  0
    2.8348    1.0853    4.8423 H   0  0  0  0  0  0  0  0  0  0  0  0
    3.0577    2.8156    5.1646 H   0  0  0  0  0  0  0  0  0  0  0  0
    1.4626    2.0710    5.3334 H   0  0  0  0  0  0  0  0  0  0  0  0
    2.2782   -1.3309    0.1741 B   0  0  0  0  0  0  0  0  0  0  0  0
    3.1268   -2.2510    0.7454 O   0  0  0  0  0  0  0  0  0  0  0  0
    4.4020   -2.2173    0.0865 C   0  0  0  0  0  0  0  0  0  0  0  0
    5.3290   -1.3803    0.9710 C   0  0  0  0  0  0  0  0  0  0  0  0
    4.8999   -0.3908    1.0957 H   0  0  0  0  0  0  0  0  0  0  0  0
    5.3739   -1.8403    1.9544 H   0  0  0  0  0  0  0  0  0  0  0  0
    6.3294   -1.3186    0.5541 H   0  0  0  0  0  0  0  0  0  0  0  0
    4.9522   -3.6376   -0.0312 C   0  0  0  0  0  0  0  0  0  0  0  0
    5.1433   -4.0192    0.9681 H   0  0  0  0  0  0  0  0  0  0  0  0
    5.8831   -3.6314   -0.5911 H   0  0  0  0  0  0  0  0  0  0  0  0
    4.2420   -4.2996   -0.5156 H   0  0  0  0  0  0  0  0  0  0  0  0
    4.0651   -1.5169   -1.2756 C   0  0  0  0  0  0  0  0  0  0  0  0
    2.8220   -0.8520   -0.9930 O   0  0  0  0  0  0  0  0  0  0  0  0
    5.0932   -0.4860   -1.7364 C   0  0  0  0  0  0  0  0  0  0  0  0
    6.0719   -0.9476   -1.8322 H   0  0  0  0  0  0  0  0  0  0  0  0
    4.7946   -0.0908   -2.7042 H   0  0  0  0  0  0  0  0  0  0  0  0
    5.1424    0.3376   -1.0327 H   0  0  0  0  0  0  0  0  0  0  0  0
    3.7977   -2.5087   -2.4155 C   0  0  0  0  0  0  0  0  0  0  0  0
    3.0493   -3.2355   -2.1122 H   0  0  0  0  0  0  0  0  0  0  0  0
    3.4065   -1.9604   -3.2692 H   0  0  0  0  0  0  0  0  0  0  0  0
    4.7098   -3.0192   -2.7089 H   0  0  0  0  0  0  0  0  0  0  0  0
   -3.4166   -3.5572   -2.9035 H   0  0  0  0  0  0  0  0  0  0  0  0
   -4.9563    1.9827    0.9389 H   0  0  0  0  0  0  0  0  0  0  0  0
    0.2359   -1.6814    2.9603 C   0  0  0  0  0  0  0  0  0  0  0  0
   -1.0783   -2.0280    3.2783 C   0  0  0  0  0  0  0  0  0  0  0  0
    1.1429   -1.5712    4.0259 C   0  0  0  0  0  0  0  0  0  0  0  0
   -1.4878   -2.1338    4.5942 C   0  0  0  0  0  0  0  0  0  0  0  0
   -1.7998   -2.2139    2.4973 H   0  0  0  0  0  0  0  0  0  0  0  0
    2.5268   -1.3686    3.8404 C   0  0  0  0  0  0  0  0  0  0  0  0
    0.7175   -1.6942    5.3540 C   0  0  0  0  0  0  0  0  0  0  0  0
   -0.6041   -1.9563    5.6497 C   0  0  0  0  0  0  0  0  0  0  0  0
   -3.1512   -2.5087    4.9353 Cl  0  0  0  0  0  0  0  0  0  0  0  0
    3.6700   -1.2509    3.8541 N   0  0  0  0  0  0  0  0  0  0  0  0
    1.4377   -1.5865    6.1519 H   0  0  0  0  0  0  0  0  0  0  0  0
   -0.9407   -2.0421    6.6701 H   0  0  0  0  0  0  0  0  0  0  0  0
  1  2  4  0  0  0  0
  2  3  4  0  0  0  0
  3  4  4  0  0  0  0
  4  5  4  0  0  0  0
  1  6  4  0  0  0  0
  5  6  4  0  0  0  0
  6  7  1  0  0  0  0
  5  8  1  0  0  0  0
  3  9  1  0  0  0  0
  2 10  1  0  0  0  0
 10 11  4  0  0  0  0
 11 12  4  0  0  0  0
 12 13  4  0  0  0  0
 13 14  4  0  0  0  0
 10 15  4  0  0  0  0
 14 15  4  0  0  0  0
 15 16  1  0  0  0  0
 13 17  1  0  0  0  0
 12 18  1  0  0  0  0
  1 19  1  0  0  0  0
 11 19  1  0  0  0  0
 19 20  1  0  0  0  0
 19 21  1  0  0  0  0
 21 22  1  0  0  0  0
 22 23  1  0  0  0  0
 23 24  1  0  0  0  0
 24 25  1  0  0  0  0
 24 26  1  0  0  0  0
 24 27  1  0  0  0  0
 23 28  1  0  0  0  0
 28 29  1  0  0  0  0
 28 30  1  0  0  0  0
 28 31  1  0  0  0  0
 23 32  1  0  0  0  0
 21 33  1  0  0  0  0
 32 33  1  0  0  0  0
 32 34  1  0  0  0  0
 34 35  1  0  0  0  0
 34 36  1  0  0  0  0
 34 37  1  0  0  0  0
 32 38  1  0  0  0  0
 38 39  1  0  0  0  0
 38 40  1  0  0  0  0
 38 41  1  0  0  0  0
 19 42  1  0  0  0  0
 42 43  1  0  0  0  0
 43 44  1  0  0  0  0
 44 45  1  0  0  0  0
 45 46  1  0  0  0  0
 45 47  1  0  0  0  0
 45 48  1  0  0  0  0
 44 49  1  0  0  0  0
 49 50  1  0  0  0  0
 49 51  1  0  0  0  0
 49 52  1  0  0  0  0
 44 53  1  0  0  0  0
 42 54  1  0  0  0  0
 53 54  1  0  0  0  0
 53 55  1  0  0  0  0
 55 56  1  0  0  0  0
 55 57  1  0  0  0  0
 55 58  1  0  0  0  0
 53 59  1  0  0  0  0
 59 60  1  0  0  0  0
 59 61  1  0  0  0  0
 59 62  1  0  0  0  0
 19 63  1  0  0  0  0
 63 64  1  0  0  0  0
 64 65  1  0  0  0  0
 65 66  1  0  0  0  0
 66 67  1  0  0  0  0
 66 68  1  0  0  0  0
 66 69  1  0  0  0  0
 65 70  1  0  0  0  0
 70 71  1  0  0  0  0
 70 72  1  0  0  0  0
 70 73  1  0  0  0  0
 65 74  1  0  0  0  0
 63 75  1  0  0  0  0
 74 75  1  0  0  0  0
 74 76  1  0  0  0  0
 76 77  1  0  0  0  0
 76 78  1  0  0  0  0
 76 79  1  0  0  0  0
 74 80  1  0  0  0  0
 80 81  1  0  0  0  0
 80 82  1  0  0  0  0
 80 83  1  0  0  0  0
  4 84  1  0  0  0  0
 14 85  1  0  0  0  0
 19 86  1  0  0  0  0
 20 86  1  0  0  0  0
 86 87  4  0  0  0  0
 86 88  4  0  0  0  0
 87 89  4  0  0  0  0
 87 90  1  0  0  0  0
 88 91  1  0  0  0  0
 88 92  4  0  0  0  0
 89 93  4  0  0  0  0
 92 93  4  0  0  0  0
 89 94  1  0  0  0  0
 91 95  3  0  0  0  0
 92 96  1  0  0  0  0
 93 97  1  0  0  0  0
M  END
