17

C          1.25779        1.21824       -0.00240
C         -0.14258        1.28542       -0.01704
C         -0.78922        2.61397       -0.03399
O         -0.14575        3.65434       -0.03557
O         -2.13810        2.52937       -0.05010
C         -2.81781        3.78698       -0.07252
C         -0.83802        0.08426       -0.01769
F         -2.17959        0.06430       -0.02565
N         -0.24013       -1.13520       -0.00977
C          1.10866       -1.16010        0.00017
C          1.89450       -0.02115        0.00515
H          1.85418        2.12889        0.00153
H         -3.89359        3.58975       -0.07693
H         -2.56457        4.34403       -0.98001
H         -2.57697        4.37070        0.82148
H          1.55510       -2.15132        0.00370
H          2.97721       -0.09506        0.01362
