
  xtb     01142214233D
 xtb: 6.4.1 (1a32961)
110119  0     0  0            999 V2000
   -0.8926   -1.8704   -0.5617 N   0  0  0  0  0  0  0  0  0  0  0  0
   -2.0437   -1.2294   -0.8413 C   0  0  0  0  0  0  0  0  0  0  0  0
   -2.7955   -1.5625   -1.9736 C   0  0  0  0  0  0  0  0  0  0  0  0
   -2.3626   -2.5629   -2.8151 C   0  0  0  0  0  0  0  0  0  0  0  0
   -1.1780   -3.2272   -2.5075 C   0  0  0  0  0  0  0  0  0  0  0  0
   -0.4886   -2.8400   -1.3784 C   0  0  0  0  0  0  0  0  0  0  0  0
    0.4356   -3.3274   -1.0987 H   0  0  0  0  0  0  0  0  0  0  0  0
   -0.8061   -4.0223   -3.1336 H   0  0  0  0  0  0  0  0  0  0  0  0
   -3.7093   -1.0379   -2.1975 H   0  0  0  0  0  0  0  0  0  0  0  0
   -2.4324   -0.1695    0.0788 C   0  0  0  0  0  0  0  0  0  0  0  0
   -1.5449    0.1456    1.0463 N   0  0  0  0  0  0  0  0  0  0  0  0
   -1.8529    1.1217    1.8986 C   0  0  0  0  0  0  0  0  0  0  0  0
   -3.0295    1.8380    1.8439 C   0  0  0  0  0  0  0  0  0  0  0  0
   -3.9581    1.5181    0.8570 C   0  0  0  0  0  0  0  0  0  0  0  0
   -3.6530    0.5060   -0.0261 C   0  0  0  0  0  0  0  0  0  0  0  0
   -4.3674    0.2276   -0.7826 H   0  0  0  0  0  0  0  0  0  0  0  0
   -3.2261    2.6174    2.5625 H   0  0  0  0  0  0  0  0  0  0  0  0
   -1.1075    1.3301    2.6504 H   0  0  0  0  0  0  0  0  0  0  0  0
    0.4215   -0.8165    0.9133 Ir  0  0  0  0  0  0  0  0  0  0  0  0
    0.8726   -2.2303    1.5405 H   0  0  0  0  0  0  0  0  0  0  0  0
    0.5727    0.6377   -0.5875 B   0  0  0  0  0  0  0  0  0  0  0  0
    0.0043    0.3943   -1.8226 O   0  0  0  0  0  0  0  0  0  0  0  0
    0.0779    1.5631   -2.6434 C   0  0  0  0  0  0  0  0  0  0  0  0
    0.4411    1.1547   -4.0693 C   0  0  0  0  0  0  0  0  0  0  0  0
    1.3340    0.5385   -4.0747 H   0  0  0  0  0  0  0  0  0  0  0  0
    0.5988    2.0359   -4.6857 H   0  0  0  0  0  0  0  0  0  0  0  0
   -0.3757    0.5723   -4.4892 H   0  0  0  0  0  0  0  0  0  0  0  0
   -1.3177    2.2029   -2.6423 C   0  0  0  0  0  0  0  0  0  0  0  0
   -1.3482    3.0802   -3.2816 H   0  0  0  0  0  0  0  0  0  0  0  0
   -2.0348    1.4710   -3.0091 H   0  0  0  0  0  0  0  0  0  0  0  0
   -1.6048    2.4755   -1.6287 H   0  0  0  0  0  0  0  0  0  0  0  0
    1.1502    2.4329   -1.9062 C   0  0  0  0  0  0  0  0  0  0  0  0
    1.1273    1.8967   -0.5752 O   0  0  0  0  0  0  0  0  0  0  0  0
    2.5650    2.2056   -2.4523 C   0  0  0  0  0  0  0  0  0  0  0  0
    2.8044    1.1478   -2.3825 H   0  0  0  0  0  0  0  0  0  0  0  0
    2.6551    2.5534   -3.4773 H   0  0  0  0  0  0  0  0  0  0  0  0
    3.2737    2.7493   -1.8318 H   0  0  0  0  0  0  0  0  0  0  0  0
    0.8535    3.9309   -1.8701 C   0  0  0  0  0  0  0  0  0  0  0  0
   -0.0660    4.1393   -1.3320 H   0  0  0  0  0  0  0  0  0  0  0  0
    1.6672    4.4420   -1.3609 H   0  0  0  0  0  0  0  0  0  0  0  0
    0.7773    4.3188   -2.8828 H   0  0  0  0  0  0  0  0  0  0  0  0
    1.5890    0.5890    1.9143 B   0  0  0  0  0  0  0  0  0  0  0  0
    2.9588    0.6067    2.0088 O   0  0  0  0  0  0  0  0  0  0  0  0
    3.4022    1.8494    2.5702 C   0  0  0  0  0  0  0  0  0  0  0  0
    4.5448    1.5896    3.5512 C   0  0  0  0  0  0  0  0  0  0  0  0
    4.2576    0.8567    4.2974 H   0  0  0  0  0  0  0  0  0  0  0  0
    5.4001    1.1989    3.0057 H   0  0  0  0  0  0  0  0  0  0  0  0
    4.8355    2.5151    4.0408 H   0  0  0  0  0  0  0  0  0  0  0  0
    3.9151    2.6957    1.3990 C   0  0  0  0  0  0  0  0  0  0  0  0
    4.2539    3.6733    1.7283 H   0  0  0  0  0  0  0  0  0  0  0  0
    4.7467    2.1728    0.9316 H   0  0  0  0  0  0  0  0  0  0  0  0
    3.1227    2.7925    0.6616 H   0  0  0  0  0  0  0  0  0  0  0  0
    2.0935    2.4253    3.2164 C   0  0  0  0  0  0  0  0  0  0  0  0
    1.0576    1.6710    2.5722 O   0  0  0  0  0  0  0  0  0  0  0  0
    1.8591    3.9138    2.9642 C   0  0  0  0  0  0  0  0  0  0  0  0
    1.7445    4.1066    1.9028 H   0  0  0  0  0  0  0  0  0  0  0  0
    0.9444    4.2199    3.4656 H   0  0  0  0  0  0  0  0  0  0  0  0
    2.6870    4.4972    3.3576 H   0  0  0  0  0  0  0  0  0  0  0  0
    1.9860    2.1428    4.7202 C   0  0  0  0  0  0  0  0  0  0  0  0
    2.0756    1.0755    4.9047 H   0  0  0  0  0  0  0  0  0  0  0  0
    2.7462    2.6836    5.2753 H   0  0  0  0  0  0  0  0  0  0  0  0
    1.0047    2.4598    5.0655 H   0  0  0  0  0  0  0  0  0  0  0  0
    2.2782   -1.3309    0.1741 B   0  0  0  0  0  0  0  0  0  0  0  0
    3.0620   -2.3215    0.7357 O   0  0  0  0  0  0  0  0  0  0  0  0
    4.3412   -2.3755    0.0950 C   0  0  0  0  0  0  0  0  0  0  0  0
    5.3250   -1.6453    1.0154 C   0  0  0  0  0  0  0  0  0  0  0  0
    4.9517   -0.6428    1.2037 H   0  0  0  0  0  0  0  0  0  0  0  0
    5.3616   -2.1717    1.9660 H   0  0  0  0  0  0  0  0  0  0  0  0
    6.3231   -1.6122    0.5897 H   0  0  0  0  0  0  0  0  0  0  0  0
    4.7744   -3.8337   -0.0567 C   0  0  0  0  0  0  0  0  0  0  0  0
    4.9161   -4.2604    0.9328 H   0  0  0  0  0  0  0  0  0  0  0  0
    5.7114   -3.8914   -0.6034 H   0  0  0  0  0  0  0  0  0  0  0  0
    4.0190   -4.4198   -0.5693 H   0  0  0  0  0  0  0  0  0  0  0  0
    4.0792   -1.6149   -1.2503 C   0  0  0  0  0  0  0  0  0  0  0  0
    2.8904   -0.8588   -0.9648 O   0  0  0  0  0  0  0  0  0  0  0  0
    5.1996   -0.6687   -1.6765 C   0  0  0  0  0  0  0  0  0  0  0  0
    6.1347   -1.2143   -1.7697 H   0  0  0  0  0  0  0  0  0  0  0  0
    4.9539   -0.2304   -2.6407 H   0  0  0  0  0  0  0  0  0  0  0  0
    5.3136    0.1350   -0.9572 H   0  0  0  0  0  0  0  0  0  0  0  0
    3.7447   -2.5555   -2.4161 C   0  0  0  0  0  0  0  0  0  0  0  0
    2.9311   -3.2203   -2.1390 H   0  0  0  0  0  0  0  0  0  0  0  0
    3.4147   -1.9581   -3.2626 H   0  0  0  0  0  0  0  0  0  0  0  0
    4.6132   -3.1370   -2.7099 H   0  0  0  0  0  0  0  0  0  0  0  0
   -2.9316   -2.8258   -3.6940 H   0  0  0  0  0  0  0  0  0  0  0  0
   -4.8979    2.0446    0.7867 H   0  0  0  0  0  0  0  0  0  0  0  0
    0.2359   -1.6814    2.9603 C   0  0  0  0  0  0  0  0  0  0  0  0
   -1.0317   -1.8411    3.5418 C   0  0  0  0  0  0  0  0  0  0  0  0
    1.3328   -1.6199    3.8274 C   0  0  0  0  0  0  0  0  0  0  0  0
   -2.2564   -2.0554    2.7776 C   0  0  0  0  0  0  0  0  0  0  0  0
   -1.1702   -1.8007    4.9340 C   0  0  0  0  0  0  0  0  0  0  0  0
    1.1885   -1.6082    5.2024 C   0  0  0  0  0  0  0  0  0  0  0  0
    2.3224   -1.5732    3.3988 H   0  0  0  0  0  0  0  0  0  0  0  0
   -2.3151   -2.9323    1.7258 N   0  0  0  0  0  0  0  0  0  0  0  0
   -3.5023   -1.5148    2.9783 C   0  0  0  0  0  0  0  0  0  0  0  0
   -0.0780   -1.6712    5.7645 C   0  0  0  0  0  0  0  0  0  0  0  0
   -2.1610   -1.8965    5.3548 H   0  0  0  0  0  0  0  0  0  0  0  0
    2.0602   -1.5517    5.8395 H   0  0  0  0  0  0  0  0  0  0  0  0
   -3.5779   -2.9483    1.2161 C   0  0  0  0  0  0  0  0  0  0  0  0
   -1.5288   -3.4597    1.3869 H   0  0  0  0  0  0  0  0  0  0  0  0
   -4.3624   -2.0503    1.9863 C   0  0  0  0  0  0  0  0  0  0  0  0
   -3.7657   -0.7839    3.7177 H   0  0  0  0  0  0  0  0  0  0  0  0
   -0.2083   -1.6432    6.8365 H   0  0  0  0  0  0  0  0  0  0  0  0
   -4.1182   -3.6566    0.1515 C   0  0  0  0  0  0  0  0  0  0  0  0
   -5.7058   -1.8612    1.6597 C   0  0  0  0  0  0  0  0  0  0  0  0
   -5.4480   -3.4477   -0.1488 C   0  0  0  0  0  0  0  0  0  0  0  0
   -3.5133   -4.3405   -0.4258 H   0  0  0  0  0  0  0  0  0  0  0  0
   -6.2302   -2.5583    0.5945 C   0  0  0  0  0  0  0  0  0  0  0  0
   -6.3158   -1.1778    2.2329 H   0  0  0  0  0  0  0  0  0  0  0  0
   -5.8986   -3.9802   -0.9739 H   0  0  0  0  0  0  0  0  0  0  0  0
   -7.2678   -2.4219    0.3236 H   0  0  0  0  0  0  0  0  0  0  0  0
  1  2  4  0  0  0  0
  2  3  4  0  0  0  0
  3  4  4  0  0  0  0
  4  5  4  0  0  0  0
  1  6  4  0  0  0  0
  5  6  4  0  0  0  0
  6  7  1  0  0  0  0
  5  8  1  0  0  0  0
  3  9  1  0  0  0  0
  2 10  1  0  0  0  0
 10 11  4  0  0  0  0
 11 12  4  0  0  0  0
 12 13  4  0  0  0  0
 13 14  4  0  0  0  0
 10 15  4  0  0  0  0
 14 15  4  0  0  0  0
 15 16  1  0  0  0  0
 13 17  1  0  0  0  0
 12 18  1  0  0  0  0
  1 19  1  0  0  0  0
 11 19  1  0  0  0  0
 19 20  1  0  0  0  0
 19 21  1  0  0  0  0
 21 22  1  0  0  0  0
 22 23  1  0  0  0  0
 23 24  1  0  0  0  0
 24 25  1  0  0  0  0
 24 26  1  0  0  0  0
 24 27  1  0  0  0  0
 23 28  1  0  0  0  0
 28 29  1  0  0  0  0
 28 30  1  0  0  0  0
 28 31  1  0  0  0  0
 23 32  1  0  0  0  0
 21 33  1  0  0  0  0
 32 33  1  0  0  0  0
 32 34  1  0  0  0  0
 34 35  1  0  0  0  0
 34 36  1  0  0  0  0
 34 37  1  0  0  0  0
 32 38  1  0  0  0  0
 38 39  1  0  0  0  0
 38 40  1  0  0  0  0
 38 41  1  0  0  0  0
 19 42  1  0  0  0  0
 42 43  1  0  0  0  0
 43 44  1  0  0  0  0
 44 45  1  0  0  0  0
 45 46  1  0  0  0  0
 45 47  1  0  0  0  0
 45 48  1  0  0  0  0
 44 49  1  0  0  0  0
 49 50  1  0  0  0  0
 49 51  1  0  0  0  0
 49 52  1  0  0  0  0
 44 53  1  0  0  0  0
 42 54  1  0  0  0  0
 53 54  1  0  0  0  0
 53 55  1  0  0  0  0
 55 56  1  0  0  0  0
 55 57  1  0  0  0  0
 55 58  1  0  0  0  0
 53 59  1  0  0  0  0
 59 60  1  0  0  0  0
 59 61  1  0  0  0  0
 59 62  1  0  0  0  0
 19 63  1  0  0  0  0
 63 64  1  0  0  0  0
 64 65  1  0  0  0  0
 65 66  1  0  0  0  0
 66 67  1  0  0  0  0
 66 68  1  0  0  0  0
 66 69  1  0  0  0  0
 65 70  1  0  0  0  0
 70 71  1  0  0  0  0
 70 72  1  0  0  0  0
 70 73  1  0  0  0  0
 65 74  1  0  0  0  0
 63 75  1  0  0  0  0
 74 75  1  0  0  0  0
 74 76  1  0  0  0  0
 76 77  1  0  0  0  0
 76 78  1  0  0  0  0
 76 79  1  0  0  0  0
 74 80  1  0  0  0  0
 80 81  1  0  0  0  0
 80 82  1  0  0  0  0
 80 83  1  0  0  0  0
  4 84  1  0  0  0  0
 14 85  1  0  0  0  0
 19 86  1  0  0  0  0
 20 86  1  0  0  0  0
 86 87  4  0  0  0  0
 86 88  4  0  0  0  0
 87 89  1  0  0  0  0
 87 90  4  0  0  0  0
 88 91  4  0  0  0  0
 88 92  1  0  0  0  0
 89 93  1  0  0  0  0
 89 94  2  0  0  0  0
 90 95  4  0  0  0  0
 91 95  4  0  0  0  0
 90 96  1  0  0  0  0
 91 97  1  0  0  0  0
 93 98  1  0  0  0  0
 93 99  1  0  0  0  0
 94100  4  0  0  0  0
 98100  4  0  0  0  0
 94101  1  0  0  0  0
 95102  1  0  0  0  0
 98103  4  0  0  0  0
100104  4  0  0  0  0
103105  4  0  0  0  0
103106  1  0  0  0  0
104107  2  0  0  0  0
105107  4  0  0  0  0
104108  1  0  0  0  0
105109  1  0  0  0  0
107110  1  0  0  0  0
M  END
