
  xtb     10082107173D
 xtb: 6.4.0 (f63f532)
106114  0     0  0            999 V2000
   -0.9846   -2.0363   -0.3149 N   0  0  0  0  0  0  0  0  0  0  0  0
   -2.2122   -1.5163   -0.5184 C   0  0  0  0  0  0  0  0  0  0  0  0
   -3.1598   -2.1924   -1.2977 C   0  0  0  0  0  0  0  0  0  0  0  0
   -2.8278   -3.3873   -1.8966 C   0  0  0  0  0  0  0  0  0  0  0  0
   -1.5431   -3.8941   -1.7079 C   0  0  0  0  0  0  0  0  0  0  0  0
   -0.6718   -3.1864   -0.9075 C   0  0  0  0  0  0  0  0  0  0  0  0
    0.3271   -3.5513   -0.7131 H   0  0  0  0  0  0  0  0  0  0  0  0
   -1.2375   -4.8219   -2.1633 H   0  0  0  0  0  0  0  0  0  0  0  0
   -4.1527   -1.7925   -1.4173 H   0  0  0  0  0  0  0  0  0  0  0  0
   -2.4776   -0.2335    0.1140 C   0  0  0  0  0  0  0  0  0  0  0  0
   -1.5330    0.2289    0.9648 N   0  0  0  0  0  0  0  0  0  0  0  0
   -1.7269    1.4178    1.5380 C   0  0  0  0  0  0  0  0  0  0  0  0
   -2.8313    2.2074    1.3031 C   0  0  0  0  0  0  0  0  0  0  0  0
   -3.8090    1.7451    0.4249 C   0  0  0  0  0  0  0  0  0  0  0  0
   -3.6232    0.5177   -0.1712 C   0  0  0  0  0  0  0  0  0  0  0  0
   -4.3584    0.1472   -0.8658 H   0  0  0  0  0  0  0  0  0  0  0  0
   -2.9336    3.1603    1.7969 H   0  0  0  0  0  0  0  0  0  0  0  0
   -0.9410    1.7396    2.2033 H   0  0  0  0  0  0  0  0  0  0  0  0
    0.4215   -0.8165    0.9133 Ir  0  0  0  0  0  0  0  0  0  0  0  0
    0.8726   -2.2303    1.5405 H   0  0  0  0  0  0  0  0  0  0  0  0
    0.4783    0.5174   -0.6907 B   0  0  0  0  0  0  0  0  0  0  0  0
   -0.0551    0.1238   -1.9021 O   0  0  0  0  0  0  0  0  0  0  0  0
   -0.0892    1.2261   -2.8138 C   0  0  0  0  0  0  0  0  0  0  0  0
    0.3558    0.7505   -4.1956 C   0  0  0  0  0  0  0  0  0  0  0  0
    1.3118    0.2410   -4.1349 H   0  0  0  0  0  0  0  0  0  0  0  0
    0.4302    1.5926   -4.8789 H   0  0  0  0  0  0  0  0  0  0  0  0
   -0.3788    0.0478   -4.5821 H   0  0  0  0  0  0  0  0  0  0  0  0
   -1.5460    1.7042   -2.8953 C   0  0  0  0  0  0  0  0  0  0  0  0
   -1.6532    2.5131   -3.6120 H   0  0  0  0  0  0  0  0  0  0  0  0
   -2.1692    0.8686   -3.2077 H   0  0  0  0  0  0  0  0  0  0  0  0
   -1.8910    2.0328   -1.9173 H   0  0  0  0  0  0  0  0  0  0  0  0
    0.8602    2.2686   -2.1315 C   0  0  0  0  0  0  0  0  0  0  0  0
    0.8860    1.8290   -0.7661 O   0  0  0  0  0  0  0  0  0  0  0  0
    2.2998    2.1825   -2.6528 C   0  0  0  0  0  0  0  0  0  0  0  0
    2.6727    1.1738   -2.4942 H   0  0  0  0  0  0  0  0  0  0  0  0
    2.3587    2.4539   -3.7029 H   0  0  0  0  0  0  0  0  0  0  0  0
    2.9235    2.8628   -2.0776 H   0  0  0  0  0  0  0  0  0  0  0  0
    0.3808    3.7177   -2.1977 C   0  0  0  0  0  0  0  0  0  0  0  0
   -0.5669    3.8439   -1.6832 H   0  0  0  0  0  0  0  0  0  0  0  0
    1.1152    4.3567   -1.7133 H   0  0  0  0  0  0  0  0  0  0  0  0
    0.2756    4.0279   -3.2341 H   0  0  0  0  0  0  0  0  0  0  0  0
    1.6352    0.6089    1.8451 B   0  0  0  0  0  0  0  0  0  0  0  0
    3.0101    0.6658    1.8487 O   0  0  0  0  0  0  0  0  0  0  0  0
    3.4475    1.9527    2.3062 C   0  0  0  0  0  0  0  0  0  0  0  0
    4.7026    1.8033    3.1643 C   0  0  0  0  0  0  0  0  0  0  0  0
    4.5490    1.0824    3.9604 H   0  0  0  0  0  0  0  0  0  0  0  0
    5.5203    1.4496    2.5413 H   0  0  0  0  0  0  0  0  0  0  0  0
    4.9791    2.7640    3.5905 H   0  0  0  0  0  0  0  0  0  0  0  0
    3.7776    2.7696    1.0510 C   0  0  0  0  0  0  0  0  0  0  0  0
    4.1132    3.7717    1.3015 H   0  0  0  0  0  0  0  0  0  0  0  0
    4.5650    2.2587    0.5018 H   0  0  0  0  0  0  0  0  0  0  0  0
    2.8978    2.8062    0.4137 H   0  0  0  0  0  0  0  0  0  0  0  0
    2.1873    2.4924    3.0633 C   0  0  0  0  0  0  0  0  0  0  0  0
    1.1260    1.6999    2.5131 O   0  0  0  0  0  0  0  0  0  0  0  0
    1.8840    3.9713    2.8286 C   0  0  0  0  0  0  0  0  0  0  0  0
    1.6479    4.1503    1.7848 H   0  0  0  0  0  0  0  0  0  0  0  0
    1.0232    4.2587    3.4272 H   0  0  0  0  0  0  0  0  0  0  0  0
    2.7344    4.5803    3.1227 H   0  0  0  0  0  0  0  0  0  0  0  0
    2.2278    2.2138    4.5709 C   0  0  0  0  0  0  0  0  0  0  0  0
    2.3875    1.1536    4.7469 H   0  0  0  0  0  0  0  0  0  0  0  0
    3.0074    2.7939    5.0552 H   0  0  0  0  0  0  0  0  0  0  0  0
    1.2669    2.4834    5.0026 H   0  0  0  0  0  0  0  0  0  0  0  0
    2.2782   -1.3309    0.1741 B   0  0  0  0  0  0  0  0  0  0  0  0
    3.0300   -2.3869    0.6467 O   0  0  0  0  0  0  0  0  0  0  0  0
    4.3154   -2.4052    0.0128 C   0  0  0  0  0  0  0  0  0  0  0  0
    5.2981   -1.7612    0.9963 C   0  0  0  0  0  0  0  0  0  0  0  0
    4.9368   -0.7696    1.2537 H   0  0  0  0  0  0  0  0  0  0  0  0
    5.3142   -2.3571    1.9053 H   0  0  0  0  0  0  0  0  0  0  0  0
    6.3016   -1.7125    0.5848 H   0  0  0  0  0  0  0  0  0  0  0  0
    4.7346   -3.8499   -0.2551 C   0  0  0  0  0  0  0  0  0  0  0  0
    4.8590   -4.3596    0.6966 H   0  0  0  0  0  0  0  0  0  0  0  0
    5.6782   -3.8709   -0.7932 H   0  0  0  0  0  0  0  0  0  0  0  0
    3.9801   -4.3813   -0.8252 H   0  0  0  0  0  0  0  0  0  0  0  0
    4.0742   -1.5335   -1.2667 C   0  0  0  0  0  0  0  0  0  0  0  0
    2.9071   -0.7726   -0.9162 O   0  0  0  0  0  0  0  0  0  0  0  0
    5.2178   -0.5856   -1.6208 C   0  0  0  0  0  0  0  0  0  0  0  0
    6.1357   -1.1469   -1.7727 H   0  0  0  0  0  0  0  0  0  0  0  0
    4.9749   -0.0557   -2.5385 H   0  0  0  0  0  0  0  0  0  0  0  0
    5.3612    0.1463   -0.8336 H   0  0  0  0  0  0  0  0  0  0  0  0
    3.7103   -2.3696   -2.5017 C   0  0  0  0  0  0  0  0  0  0  0  0
    2.8762   -3.0277   -2.2733 H   0  0  0  0  0  0  0  0  0  0  0  0
    3.3966   -1.6978   -3.2973 H   0  0  0  0  0  0  0  0  0  0  0  0
    4.5600   -2.9519   -2.8449 H   0  0  0  0  0  0  0  0  0  0  0  0
   -3.5492   -3.9206   -2.4964 H   0  0  0  0  0  0  0  0  0  0  0  0
   -4.6880    2.3342    0.2114 H   0  0  0  0  0  0  0  0  0  0  0  0
    0.2359   -1.6814    2.9603 C   0  0  0  0  0  0  0  0  0  0  0  0
   -0.9099   -2.1816    3.5197 N   0  0  0  0  0  0  0  0  0  0  0  0
    1.1593   -1.5725    3.9837 C   0  0  0  0  0  0  0  0  0  0  0  0
   -2.1638   -2.4348    2.8760 C   0  0  0  0  0  0  0  0  0  0  0  0
   -0.7385   -2.3219    4.8676 C   0  0  0  0  0  0  0  0  0  0  0  0
    0.5383   -1.9506    5.1880 C   0  0  0  0  0  0  0  0  0  0  0  0
    2.1770   -1.2602    3.8568 H   0  0  0  0  0  0  0  0  0  0  0  0
   -3.1966   -1.3532    3.1001 C   0  0  0  0  0  0  0  0  0  0  0  0
   -2.0038   -2.5522    1.8033 H   0  0  0  0  0  0  0  0  0  0  0  0
   -2.5827   -3.3774    3.2491 H   0  0  0  0  0  0  0  0  0  0  0  0
   -1.5395   -2.6717    5.4908 H   0  0  0  0  0  0  0  0  0  0  0  0
    0.9793   -1.9627    6.1672 H   0  0  0  0  0  0  0  0  0  0  0  0
   -4.3753   -1.5651    2.5238 N   0  0  0  0  0  0  0  0  0  0  0  0
   -2.9394   -0.2243    3.8708 C   0  0  0  0  0  0  0  0  0  0  0  0
   -5.3366   -0.6749    2.7011 C   0  0  0  0  0  0  0  0  0  0  0  0
   -3.9547    0.6980    4.0577 C   0  0  0  0  0  0  0  0  0  0  0  0
   -1.9652   -0.0735    4.3068 H   0  0  0  0  0  0  0  0  0  0  0  0
   -5.1869    0.4712    3.4648 C   0  0  0  0  0  0  0  0  0  0  0  0
   -6.2719   -0.9022    2.2058 H   0  0  0  0  0  0  0  0  0  0  0  0
   -3.7843    1.5806    4.6566 H   0  0  0  0  0  0  0  0  0  0  0  0
   -6.0049    1.1632    3.5874 H   0  0  0  0  0  0  0  0  0  0  0  0
  1  2  4  0  0  0  0
  2  3  4  0  0  0  0
  3  4  4  0  0  0  0
  4  5  4  0  0  0  0
  1  6  4  0  0  0  0
  5  6  4  0  0  0  0
  6  7  1  0  0  0  0
  5  8  1  0  0  0  0
  3  9  1  0  0  0  0
  2 10  1  0  0  0  0
 10 11  4  0  0  0  0
 11 12  4  0  0  0  0
 12 13  4  0  0  0  0
 13 14  4  0  0  0  0
 10 15  4  0  0  0  0
 14 15  4  0  0  0  0
 15 16  1  0  0  0  0
 13 17  1  0  0  0  0
 12 18  1  0  0  0  0
  1 19  1  0  0  0  0
 11 19  1  0  0  0  0
 19 20  1  0  0  0  0
 19 21  1  0  0  0  0
 21 22  1  0  0  0  0
 22 23  1  0  0  0  0
 23 24  1  0  0  0  0
 24 25  1  0  0  0  0
 24 26  1  0  0  0  0
 24 27  1  0  0  0  0
 23 28  1  0  0  0  0
 28 29  1  0  0  0  0
 28 30  1  0  0  0  0
 28 31  1  0  0  0  0
 23 32  1  0  0  0  0
 21 33  1  0  0  0  0
 32 33  1  0  0  0  0
 32 34  1  0  0  0  0
 34 35  1  0  0  0  0
 34 36  1  0  0  0  0
 34 37  1  0  0  0  0
 32 38  1  0  0  0  0
 38 39  1  0  0  0  0
 38 40  1  0  0  0  0
 38 41  1  0  0  0  0
 19 42  1  0  0  0  0
 42 43  1  0  0  0  0
 43 44  1  0  0  0  0
 44 45  1  0  0  0  0
 45 46  1  0  0  0  0
 45 47  1  0  0  0  0
 45 48  1  0  0  0  0
 44 49  1  0  0  0  0
 49 50  1  0  0  0  0
 49 51  1  0  0  0  0
 49 52  1  0  0  0  0
 44 53  1  0  0  0  0
 42 54  1  0  0  0  0
 53 54  1  0  0  0  0
 53 55  1  0  0  0  0
 55 56  1  0  0  0  0
 55 57  1  0  0  0  0
 55 58  1  0  0  0  0
 53 59  1  0  0  0  0
 59 60  1  0  0  0  0
 59 61  1  0  0  0  0
 59 62  1  0  0  0  0
 19 63  1  0  0  0  0
 63 64  1  0  0  0  0
 64 65  1  0  0  0  0
 65 66  1  0  0  0  0
 66 67  1  0  0  0  0
 66 68  1  0  0  0  0
 66 69  1  0  0  0  0
 65 70  1  0  0  0  0
 70 71  1  0  0  0  0
 70 72  1  0  0  0  0
 70 73  1  0  0  0  0
 65 74  1  0  0  0  0
 63 75  1  0  0  0  0
 74 75  1  0  0  0  0
 74 76  1  0  0  0  0
 76 77  1  0  0  0  0
 76 78  1  0  0  0  0
 76 79  1  0  0  0  0
 74 80  1  0  0  0  0
 80 81  1  0  0  0  0
 80 82  1  0  0  0  0
 80 83  1  0  0  0  0
  4 84  1  0  0  0  0
 14 85  1  0  0  0  0
 19 86  1  0  0  0  0
 20 86  1  0  0  0  0
 86 87  1  0  0  0  0
 86 88  4  0  0  0  0
 87 89  1  0  0  0  0
 87 90  1  0  0  0  0
 88 91  4  0  0  0  0
 90 91  2  0  0  0  0
 88 92  1  0  0  0  0
 89 93  1  0  0  0  0
 89 94  1  0  0  0  0
 89 95  1  0  0  0  0
 90 96  1  0  0  0  0
 91 97  1  0  0  0  0
 93 98  4  0  0  0  0
 93 99  4  0  0  0  0
 98100  4  0  0  0  0
 99101  4  0  0  0  0
 99102  1  0  0  0  0
100103  4  0  0  0  0
101103  4  0  0  0  0
100104  1  0  0  0  0
101105  1  0  0  0  0
103106  1  0  0  0  0
M  END
