
  xtb     01142215123D
 xtb: 6.4.1 (1a32961)
103111  0     0  0            999 V2000
   -0.8531   -2.1754   -0.3211 N   0  0  0  0  0  0  0  0  0  0  0  0
   -2.1446   -1.8286   -0.4686 C   0  0  0  0  0  0  0  0  0  0  0  0
   -3.0280   -2.6351   -1.1996 C   0  0  0  0  0  0  0  0  0  0  0  0
   -2.5665   -3.7830   -1.8046 C   0  0  0  0  0  0  0  0  0  0  0  0
   -1.2203   -4.1136   -1.6657 C   0  0  0  0  0  0  0  0  0  0  0  0
   -0.4167   -3.2842   -0.9107 C   0  0  0  0  0  0  0  0  0  0  0  0
    0.6286   -3.5109   -0.7561 H   0  0  0  0  0  0  0  0  0  0  0  0
   -0.8154   -5.0017   -2.1233 H   0  0  0  0  0  0  0  0  0  0  0  0
   -4.0701   -2.3719   -1.2804 H   0  0  0  0  0  0  0  0  0  0  0  0
   -2.5628   -0.5906    0.1748 C   0  0  0  0  0  0  0  0  0  0  0  0
   -1.6683   -0.0074    0.9996 N   0  0  0  0  0  0  0  0  0  0  0  0
   -2.0183    1.1138    1.6247 C   0  0  0  0  0  0  0  0  0  0  0  0
   -3.2460    1.7236    1.4674 C   0  0  0  0  0  0  0  0  0  0  0  0
   -4.1679    1.1504    0.5946 C   0  0  0  0  0  0  0  0  0  0  0  0
   -3.8174   -0.0121   -0.0567 C   0  0  0  0  0  0  0  0  0  0  0  0
   -4.5088   -0.4622   -0.7502 H   0  0  0  0  0  0  0  0  0  0  0  0
   -3.4801    2.6248    2.0110 H   0  0  0  0  0  0  0  0  0  0  0  0
   -1.2661    1.5292    2.2768 H   0  0  0  0  0  0  0  0  0  0  0  0
    0.4215   -0.8165    0.9133 Ir  0  0  0  0  0  0  0  0  0  0  0  0
    0.8726   -2.2303    1.5405 H   0  0  0  0  0  0  0  0  0  0  0  0
    0.3396    0.5584   -0.6455 B   0  0  0  0  0  0  0  0  0  0  0  0
   -0.1034    0.1354   -1.8884 O   0  0  0  0  0  0  0  0  0  0  0  0
   -0.3428    1.2641   -2.7353 C   0  0  0  0  0  0  0  0  0  0  0  0
    0.1278    0.9480   -4.1533 C   0  0  0  0  0  0  0  0  0  0  0  0
    1.1559    0.6017   -4.1519 H   0  0  0  0  0  0  0  0  0  0  0  0
    0.0387    1.8297   -4.7829 H   0  0  0  0  0  0  0  0  0  0  0  0
   -0.4959    0.1576   -4.5650 H   0  0  0  0  0  0  0  0  0  0  0  0
   -1.8593    1.5058   -2.7546 C   0  0  0  0  0  0  0  0  0  0  0  0
   -2.1175    2.3194   -3.4262 H   0  0  0  0  0  0  0  0  0  0  0  0
   -2.3538    0.5969   -3.0925 H   0  0  0  0  0  0  0  0  0  0  0  0
   -2.2181    1.7314   -1.7525 H   0  0  0  0  0  0  0  0  0  0  0  0
    0.4408    2.4081   -2.0100 C   0  0  0  0  0  0  0  0  0  0  0  0
    0.5293    1.9218   -0.6644 O   0  0  0  0  0  0  0  0  0  0  0  0
    1.8782    2.5534   -2.5253 C   0  0  0  0  0  0  0  0  0  0  0  0
    2.3907    1.6004   -2.4206 H   0  0  0  0  0  0  0  0  0  0  0  0
    1.8981    2.8879   -3.5586 H   0  0  0  0  0  0  0  0  0  0  0  0
    2.4003    3.2800   -1.9075 H   0  0  0  0  0  0  0  0  0  0  0  0
   -0.2444    3.7732   -2.0261 C   0  0  0  0  0  0  0  0  0  0  0  0
   -1.1967    3.7436   -1.5056 H   0  0  0  0  0  0  0  0  0  0  0  0
    0.3927    4.4961   -1.5222 H   0  0  0  0  0  0  0  0  0  0  0  0
   -0.4016    4.0990   -3.0513 H   0  0  0  0  0  0  0  0  0  0  0  0
    1.4170    0.7349    1.8915 B   0  0  0  0  0  0  0  0  0  0  0  0
    2.7659    1.0048    1.8927 O   0  0  0  0  0  0  0  0  0  0  0  0
    3.0110    2.3042    2.4426 C   0  0  0  0  0  0  0  0  0  0  0  0
    4.2825    2.2707    3.2885 C   0  0  0  0  0  0  0  0  0  0  0  0
    4.2279    1.4947    4.0446 H   0  0  0  0  0  0  0  0  0  0  0  0
    5.1286    2.0582    2.6405 H   0  0  0  0  0  0  0  0  0  0  0  0
    4.4389    3.2338    3.7668 H   0  0  0  0  0  0  0  0  0  0  0  0
    3.2110    3.2474    1.2511 C   0  0  0  0  0  0  0  0  0  0  0  0
    3.4105    4.2653    1.5732 H   0  0  0  0  0  0  0  0  0  0  0  0
    4.0518    2.8837    0.6657 H   0  0  0  0  0  0  0  0  0  0  0  0
    2.3266    3.2104    0.6206 H   0  0  0  0  0  0  0  0  0  0  0  0
    1.6922    2.5958    3.2355 C   0  0  0  0  0  0  0  0  0  0  0  0
    0.7584    1.6879    2.6371 O   0  0  0  0  0  0  0  0  0  0  0  0
    1.1655    4.0239    3.0994 C   0  0  0  0  0  0  0  0  0  0  0  0
    0.8967    4.2358    2.0698 H   0  0  0  0  0  0  0  0  0  0  0  0
    0.2761    4.1359    3.7148 H   0  0  0  0  0  0  0  0  0  0  0  0
    1.9153    4.7345    3.4363 H   0  0  0  0  0  0  0  0  0  0  0  0
    1.7902    2.2339    4.7226 C   0  0  0  0  0  0  0  0  0  0  0  0
    2.1168    1.2046    4.8389 H   0  0  0  0  0  0  0  0  0  0  0  0
    2.4721    2.9003    5.2422 H   0  0  0  0  0  0  0  0  0  0  0  0
    0.8025    2.3192    5.1697 H   0  0  0  0  0  0  0  0  0  0  0  0
    2.2782   -1.3309    0.1741 B   0  0  0  0  0  0  0  0  0  0  0  0
    2.6956   -2.6526    0.1029 O   0  0  0  0  0  0  0  0  0  0  0  0
    3.8762   -2.7839   -0.6983 C   0  0  0  0  0  0  0  0  0  0  0  0
    5.0437   -3.1170    0.2383 C   0  0  0  0  0  0  0  0  0  0  0  0
    5.1825   -2.3232    0.9645 H   0  0  0  0  0  0  0  0  0  0  0  0
    4.8074   -4.0326    0.7747 H   0  0  0  0  0  0  0  0  0  0  0  0
    5.9589   -3.2669   -0.3257 H   0  0  0  0  0  0  0  0  0  0  0  0
    3.6815   -3.9520   -1.6677 C   0  0  0  0  0  0  0  0  0  0  0  0
    3.5551   -4.8647   -1.0905 H   0  0  0  0  0  0  0  0  0  0  0  0
    4.5520   -4.0608   -2.3082 H   0  0  0  0  0  0  0  0  0  0  0  0
    2.7964   -3.8118   -2.2796 H   0  0  0  0  0  0  0  0  0  0  0  0
    3.9998   -1.3705   -1.3736 C   0  0  0  0  0  0  0  0  0  0  0  0
    3.1072   -0.5574   -0.6010 O   0  0  0  0  0  0  0  0  0  0  0  0
    5.4015   -0.7615   -1.3421 C   0  0  0  0  0  0  0  0  0  0  0  0
    6.1004   -1.3995   -1.8757 H   0  0  0  0  0  0  0  0  0  0  0  0
    5.3717    0.2108   -1.8268 H   0  0  0  0  0  0  0  0  0  0  0  0
    5.7399   -0.6170   -0.3224 H   0  0  0  0  0  0  0  0  0  0  0  0
    3.4822   -1.3490   -2.8194 C   0  0  0  0  0  0  0  0  0  0  0  0
    2.4352   -1.6416   -2.8417 H   0  0  0  0  0  0  0  0  0  0  0  0
    3.5534   -0.3323   -3.1986 H   0  0  0  0  0  0  0  0  0  0  0  0
    4.0687   -2.0004   -3.4600 H   0  0  0  0  0  0  0  0  0  0  0  0
   -3.2368   -4.4138   -2.3689 H   0  0  0  0  0  0  0  0  0  0  0  0
   -5.1331    1.6050    0.4283 H   0  0  0  0  0  0  0  0  0  0  0  0
    0.2359   -1.6814    2.9603 C   0  0  0  0  0  0  0  0  0  0  0  0
   -1.1040   -1.9092    3.2379 C   0  0  0  0  0  0  0  0  0  0  0  0
    1.0792   -1.5836    4.0766 C   0  0  0  0  0  0  0  0  0  0  0  0
   -1.6321   -1.8604    4.5328 C   0  0  0  0  0  0  0  0  0  0  0  0
   -1.7950   -2.1277    2.4359 H   0  0  0  0  0  0  0  0  0  0  0  0
    2.4444   -1.5525    4.1927 N   0  0  0  0  0  0  0  0  0  0  0  0
    0.5471   -1.5066    5.3974 C   0  0  0  0  0  0  0  0  0  0  0  0
   -0.8259   -1.6190    5.6175 C   0  0  0  0  0  0  0  0  0  0  0  0
   -2.6961   -2.0052    4.6682 H   0  0  0  0  0  0  0  0  0  0  0  0
    3.4149   -1.7883    3.1599 C   0  0  0  0  0  0  0  0  0  0  0  0
    2.7694   -1.4299    5.5106 C   0  0  0  0  0  0  0  0  0  0  0  0
    1.6485   -1.3843    6.2833 C   0  0  0  0  0  0  0  0  0  0  0  0
   -1.2283   -1.5495    6.6182 H   0  0  0  0  0  0  0  0  0  0  0  0
    3.4376   -0.9576    2.4538 H   0  0  0  0  0  0  0  0  0  0  0  0
    3.1602   -2.6933    2.6092 H   0  0  0  0  0  0  0  0  0  0  0  0
    4.3909   -1.9101    3.6276 H   0  0  0  0  0  0  0  0  0  0  0  0
    3.7994   -1.3934    5.8138 H   0  0  0  0  0  0  0  0  0  0  0  0
    1.6022   -1.2934    7.3507 H   0  0  0  0  0  0  0  0  0  0  0  0
  1  2  4  0  0  0  0
  2  3  4  0  0  0  0
  3  4  4  0  0  0  0
  4  5  4  0  0  0  0
  1  6  4  0  0  0  0
  5  6  4  0  0  0  0
  6  7  1  0  0  0  0
  5  8  1  0  0  0  0
  3  9  1  0  0  0  0
  2 10  1  0  0  0  0
 10 11  4  0  0  0  0
 11 12  4  0  0  0  0
 12 13  4  0  0  0  0
 13 14  4  0  0  0  0
 10 15  4  0  0  0  0
 14 15  4  0  0  0  0
 15 16  1  0  0  0  0
 13 17  1  0  0  0  0
 12 18  1  0  0  0  0
  1 19  1  0  0  0  0
 11 19  1  0  0  0  0
 19 20  1  0  0  0  0
 19 21  1  0  0  0  0
 21 22  1  0  0  0  0
 22 23  1  0  0  0  0
 23 24  1  0  0  0  0
 24 25  1  0  0  0  0
 24 26  1  0  0  0  0
 24 27  1  0  0  0  0
 23 28  1  0  0  0  0
 28 29  1  0  0  0  0
 28 30  1  0  0  0  0
 28 31  1  0  0  0  0
 23 32  1  0  0  0  0
 21 33  1  0  0  0  0
 32 33  1  0  0  0  0
 32 34  1  0  0  0  0
 34 35  1  0  0  0  0
 34 36  1  0  0  0  0
 34 37  1  0  0  0  0
 32 38  1  0  0  0  0
 38 39  1  0  0  0  0
 38 40  1  0  0  0  0
 38 41  1  0  0  0  0
 19 42  1  0  0  0  0
 42 43  1  0  0  0  0
 43 44  1  0  0  0  0
 44 45  1  0  0  0  0
 45 46  1  0  0  0  0
 45 47  1  0  0  0  0
 45 48  1  0  0  0  0
 44 49  1  0  0  0  0
 49 50  1  0  0  0  0
 49 51  1  0  0  0  0
 49 52  1  0  0  0  0
 44 53  1  0  0  0  0
 42 54  1  0  0  0  0
 53 54  1  0  0  0  0
 53 55  1  0  0  0  0
 55 56  1  0  0  0  0
 55 57  1  0  0  0  0
 55 58  1  0  0  0  0
 53 59  1  0  0  0  0
 59 60  1  0  0  0  0
 59 61  1  0  0  0  0
 59 62  1  0  0  0  0
 19 63  1  0  0  0  0
 63 64  1  0  0  0  0
 64 65  1  0  0  0  0
 65 66  1  0  0  0  0
 66 67  1  0  0  0  0
 66 68  1  0  0  0  0
 66 69  1  0  0  0  0
 65 70  1  0  0  0  0
 70 71  1  0  0  0  0
 70 72  1  0  0  0  0
 70 73  1  0  0  0  0
 65 74  1  0  0  0  0
 63 75  1  0  0  0  0
 74 75  1  0  0  0  0
 74 76  1  0  0  0  0
 76 77  1  0  0  0  0
 76 78  1  0  0  0  0
 76 79  1  0  0  0  0
 74 80  1  0  0  0  0
 80 81  1  0  0  0  0
 80 82  1  0  0  0  0
 80 83  1  0  0  0  0
  4 84  1  0  0  0  0
 14 85  1  0  0  0  0
 19 86  1  0  0  0  0
 20 86  1  0  0  0  0
 86 87  4  0  0  0  0
 86 88  4  0  0  0  0
 87 89  4  0  0  0  0
 87 90  1  0  0  0  0
 88 91  1  0  0  0  0
 88 92  4  0  0  0  0
 89 93  2  0  0  0  0
 92 93  4  0  0  0  0
 89 94  1  0  0  0  0
 91 95  1  0  0  0  0
 91 96  4  0  0  0  0
 92 97  4  0  0  0  0
 96 97  2  0  0  0  0
 93 98  1  0  0  0  0
 95 99  1  0  0  0  0
 95100  1  0  0  0  0
 95101  1  0  0  0  0
 96102  1  0  0  0  0
 97103  1  0  0  0  0
M  END
