
  xtb     10082107213D
 xtb: 6.4.0 (f63f532)
108116  0     0  0            999 V2000
   -0.9121   -2.0604   -0.3518 N   0  0  0  0  0  0  0  0  0  0  0  0
   -2.1865   -1.6421   -0.4797 C   0  0  0  0  0  0  0  0  0  0  0  0
   -3.1015   -2.3539   -1.2690 C   0  0  0  0  0  0  0  0  0  0  0  0
   -2.6899   -3.4750   -1.9536 C   0  0  0  0  0  0  0  0  0  0  0  0
   -1.3608   -3.8788   -1.8338 C   0  0  0  0  0  0  0  0  0  0  0  0
   -0.5253   -3.1447   -1.0192 C   0  0  0  0  0  0  0  0  0  0  0  0
    0.5080   -3.4303   -0.8798 H   0  0  0  0  0  0  0  0  0  0  0  0
   -0.9936   -4.7476   -2.3555 H   0  0  0  0  0  0  0  0  0  0  0  0
   -4.1287   -2.0351   -1.3383 H   0  0  0  0  0  0  0  0  0  0  0  0
   -2.5414   -0.4284    0.2393 C   0  0  0  0  0  0  0  0  0  0  0  0
   -1.6054    0.0746    1.0771 N   0  0  0  0  0  0  0  0  0  0  0  0
   -1.8957    1.1819    1.7609 C   0  0  0  0  0  0  0  0  0  0  0  0
   -3.0972    1.8496    1.6578 C   0  0  0  0  0  0  0  0  0  0  0  0
   -4.0624    1.3562    0.7809 C   0  0  0  0  0  0  0  0  0  0  0  0
   -3.7745    0.2141    0.0673 C   0  0  0  0  0  0  0  0  0  0  0  0
   -4.4997   -0.1749   -0.6283 H   0  0  0  0  0  0  0  0  0  0  0  0
   -3.2804    2.7340    2.2464 H   0  0  0  0  0  0  0  0  0  0  0  0
   -1.1117    1.5355    2.4131 H   0  0  0  0  0  0  0  0  0  0  0  0
    0.4215   -0.8165    0.9133 Ir  0  0  0  0  0  0  0  0  0  0  0  0
    0.8726   -2.2303    1.5405 H   0  0  0  0  0  0  0  0  0  0  0  0
    0.3778    0.6327   -0.5897 B   0  0  0  0  0  0  0  0  0  0  0  0
   -0.2139    0.3154   -1.7986 O   0  0  0  0  0  0  0  0  0  0  0  0
   -0.3389    1.4887   -2.6095 C   0  0  0  0  0  0  0  0  0  0  0  0
   -0.0086    1.1438   -4.0597 C   0  0  0  0  0  0  0  0  0  0  0  0
    0.9492    0.6381   -4.1241 H   0  0  0  0  0  0  0  0  0  0  0  0
    0.0107    2.0463   -4.6652 H   0  0  0  0  0  0  0  0  0  0  0  0
   -0.7724    0.4748   -4.4493 H   0  0  0  0  0  0  0  0  0  0  0  0
   -1.8020    1.9465   -2.5205 C   0  0  0  0  0  0  0  0  0  0  0  0
   -1.9820    2.8091   -3.1552 H   0  0  0  0  0  0  0  0  0  0  0  0
   -2.4435    1.1287   -2.8430 H   0  0  0  0  0  0  0  0  0  0  0  0
   -2.0576    2.1889   -1.4909 H   0  0  0  0  0  0  0  0  0  0  0  0
    0.6509    2.4857   -1.9211 C   0  0  0  0  0  0  0  0  0  0  0  0
    0.7516    1.9569   -0.5915 O   0  0  0  0  0  0  0  0  0  0  0  0
    2.0583    2.4259   -2.5272 C   0  0  0  0  0  0  0  0  0  0  0  0
    2.4219    1.4024   -2.4773 H   0  0  0  0  0  0  0  0  0  0  0  0
    2.0650    2.7872   -3.5515 H   0  0  0  0  0  0  0  0  0  0  0  0
    2.7231    3.0440   -1.9284 H   0  0  0  0  0  0  0  0  0  0  0  0
    0.1767    3.9367   -1.8702 C   0  0  0  0  0  0  0  0  0  0  0  0
   -0.7350    4.0339   -1.2888 H   0  0  0  0  0  0  0  0  0  0  0  0
    0.9447    4.5449   -1.3985 H   0  0  0  0  0  0  0  0  0  0  0  0
    0.0058    4.3075   -2.8776 H   0  0  0  0  0  0  0  0  0  0  0  0
    1.5634    0.6302    1.8885 B   0  0  0  0  0  0  0  0  0  0  0  0
    2.9231    0.8070    1.8707 O   0  0  0  0  0  0  0  0  0  0  0  0
    3.2604    2.0817    2.4356 C   0  0  0  0  0  0  0  0  0  0  0  0
    4.5307    1.9553    3.2727 C   0  0  0  0  0  0  0  0  0  0  0  0
    4.4315    1.1602    4.0036 H   0  0  0  0  0  0  0  0  0  0  0  0
    5.3660    1.7181    2.6187 H   0  0  0  0  0  0  0  0  0  0  0  0
    4.7380    2.8934    3.7807 H   0  0  0  0  0  0  0  0  0  0  0  0
    3.5097    3.0284    1.2551 C   0  0  0  0  0  0  0  0  0  0  0  0
    3.7634    4.0291    1.5921 H   0  0  0  0  0  0  0  0  0  0  0  0
    4.3315    2.6339    0.6621 H   0  0  0  0  0  0  0  0  0  0  0  0
    2.6233    3.0476    0.6263 H   0  0  0  0  0  0  0  0  0  0  0  0
    1.9719    2.4516    3.2446 C   0  0  0  0  0  0  0  0  0  0  0  0
    0.9709    1.6246    2.6374 O   0  0  0  0  0  0  0  0  0  0  0  0
    1.5475    3.9158    3.1463 C   0  0  0  0  0  0  0  0  0  0  0  0
    1.2965    4.1739    2.1228 H   0  0  0  0  0  0  0  0  0  0  0  0
    0.6669    4.0732    3.7644 H   0  0  0  0  0  0  0  0  0  0  0  0
    2.3452    4.5611    3.5042 H   0  0  0  0  0  0  0  0  0  0  0  0
    2.0518    2.0395    4.7182 C   0  0  0  0  0  0  0  0  0  0  0  0
    2.2852    0.9809    4.7903 H   0  0  0  0  0  0  0  0  0  0  0  0
    2.7980    2.6173    5.2541 H   0  0  0  0  0  0  0  0  0  0  0  0
    1.0819    2.2002    5.1832 H   0  0  0  0  0  0  0  0  0  0  0  0
    2.2782   -1.3309    0.1741 B   0  0  0  0  0  0  0  0  0  0  0  0
    3.0832   -2.3674    0.5876 O   0  0  0  0  0  0  0  0  0  0  0  0
    4.3773   -2.2571   -0.0205 C   0  0  0  0  0  0  0  0  0  0  0  0
    5.2947   -1.6213    1.0293 C   0  0  0  0  0  0  0  0  0  0  0  0
    4.8580   -0.6801    1.3519 H   0  0  0  0  0  0  0  0  0  0  0  0
    5.3380   -2.2823    1.8908 H   0  0  0  0  0  0  0  0  0  0  0  0
    6.2989   -1.4717    0.6446 H   0  0  0  0  0  0  0  0  0  0  0  0
    4.8956   -3.6492   -0.3786 C   0  0  0  0  0  0  0  0  0  0  0  0
    5.0331   -4.2176    0.5373 H   0  0  0  0  0  0  0  0  0  0  0  0
    5.8495   -3.5711   -0.8927 H   0  0  0  0  0  0  0  0  0  0  0  0
    4.1897   -4.1848   -1.0045 H   0  0  0  0  0  0  0  0  0  0  0  0
    4.1060   -1.3134   -1.2436 C   0  0  0  0  0  0  0  0  0  0  0  0
    2.8690   -0.6797   -0.8853 O   0  0  0  0  0  0  0  0  0  0  0  0
    5.1690   -0.2409   -1.4743 C   0  0  0  0  0  0  0  0  0  0  0  0
    6.1400   -0.6995   -1.6398 H   0  0  0  0  0  0  0  0  0  0  0  0
    4.9013    0.3429   -2.3515 H   0  0  0  0  0  0  0  0  0  0  0  0
    5.2160    0.4290   -0.6230 H   0  0  0  0  0  0  0  0  0  0  0  0
    3.8634   -2.0732   -2.5550 C   0  0  0  0  0  0  0  0  0  0  0  0
    3.0787   -2.8126   -2.4206 H   0  0  0  0  0  0  0  0  0  0  0  0
    3.5291   -1.3651   -3.3098 H   0  0  0  0  0  0  0  0  0  0  0  0
    4.7720   -2.5563   -2.9015 H   0  0  0  0  0  0  0  0  0  0  0  0
   -3.3831   -4.0300   -2.5674 H   0  0  0  0  0  0  0  0  0  0  0  0
   -5.0109    1.8574    0.6607 H   0  0  0  0  0  0  0  0  0  0  0  0
    0.2359   -1.6814    2.9603 C   0  0  0  0  0  0  0  0  0  0  0  0
   -1.0796   -1.8893    3.3885 C   0  0  0  0  0  0  0  0  0  0  0  0
    1.2446   -1.7828    3.8135 N   0  0  0  0  0  0  0  0  0  0  0  0
   -1.3177   -2.0887    4.7375 C   0  0  0  0  0  0  0  0  0  0  0  0
   -1.9049   -1.9004    2.6933 H   0  0  0  0  0  0  0  0  0  0  0  0
    1.0353   -2.0455    5.0953 C   0  0  0  0  0  0  0  0  0  0  0  0
   -0.2486   -2.1722    5.6159 C   0  0  0  0  0  0  0  0  0  0  0  0
   -2.3303   -2.2153    5.0977 H   0  0  0  0  0  0  0  0  0  0  0  0
    2.2620   -2.2967    5.9381 C   0  0  0  0  0  0  0  0  0  0  0  0
   -0.4076   -2.3763    6.6641 H   0  0  0  0  0  0  0  0  0  0  0  0
    2.8274   -1.0519    6.5703 C   0  0  0  0  0  0  0  0  0  0  0  0
    3.0171   -2.7411    5.2898 H   0  0  0  0  0  0  0  0  0  0  0  0
    2.0023   -3.0074    6.7268 H   0  0  0  0  0  0  0  0  0  0  0  0
    2.1150   -0.3614    7.5437 C   0  0  0  0  0  0  0  0  0  0  0  0
    4.0890   -0.5919    6.2151 C   0  0  0  0  0  0  0  0  0  0  0  0
    2.6506    0.7618    8.1481 C   0  0  0  0  0  0  0  0  0  0  0  0
    1.1331   -0.7079    7.8317 H   0  0  0  0  0  0  0  0  0  0  0  0
    4.6302    0.5282    6.8234 C   0  0  0  0  0  0  0  0  0  0  0  0
    4.6508   -1.1176    5.4566 H   0  0  0  0  0  0  0  0  0  0  0  0
    3.9124    1.2082    7.7922 C   0  0  0  0  0  0  0  0  0  0  0  0
    2.0847    1.2865    8.9044 H   0  0  0  0  0  0  0  0  0  0  0  0
    5.6153    0.8698    6.5409 H   0  0  0  0  0  0  0  0  0  0  0  0
    4.3335    2.0817    8.2682 H   0  0  0  0  0  0  0  0  0  0  0  0
  1  2  4  0  0  0  0
  2  3  4  0  0  0  0
  3  4  4  0  0  0  0
  4  5  4  0  0  0  0
  1  6  4  0  0  0  0
  5  6  4  0  0  0  0
  6  7  1  0  0  0  0
  5  8  1  0  0  0  0
  3  9  1  0  0  0  0
  2 10  1  0  0  0  0
 10 11  4  0  0  0  0
 11 12  4  0  0  0  0
 12 13  4  0  0  0  0
 13 14  4  0  0  0  0
 10 15  4  0  0  0  0
 14 15  4  0  0  0  0
 15 16  1  0  0  0  0
 13 17  1  0  0  0  0
 12 18  1  0  0  0  0
  1 19  1  0  0  0  0
 11 19  1  0  0  0  0
 19 20  1  0  0  0  0
 19 21  1  0  0  0  0
 21 22  1  0  0  0  0
 22 23  1  0  0  0  0
 23 24  1  0  0  0  0
 24 25  1  0  0  0  0
 24 26  1  0  0  0  0
 24 27  1  0  0  0  0
 23 28  1  0  0  0  0
 28 29  1  0  0  0  0
 28 30  1  0  0  0  0
 28 31  1  0  0  0  0
 23 32  1  0  0  0  0
 21 33  1  0  0  0  0
 32 33  1  0  0  0  0
 32 34  1  0  0  0  0
 34 35  1  0  0  0  0
 34 36  1  0  0  0  0
 34 37  1  0  0  0  0
 32 38  1  0  0  0  0
 38 39  1  0  0  0  0
 38 40  1  0  0  0  0
 38 41  1  0  0  0  0
 19 42  1  0  0  0  0
 42 43  1  0  0  0  0
 43 44  1  0  0  0  0
 44 45  1  0  0  0  0
 45 46  1  0  0  0  0
 45 47  1  0  0  0  0
 45 48  1  0  0  0  0
 44 49  1  0  0  0  0
 49 50  1  0  0  0  0
 49 51  1  0  0  0  0
 49 52  1  0  0  0  0
 44 53  1  0  0  0  0
 42 54  1  0  0  0  0
 53 54  1  0  0  0  0
 53 55  1  0  0  0  0
 55 56  1  0  0  0  0
 55 57  1  0  0  0  0
 55 58  1  0  0  0  0
 53 59  1  0  0  0  0
 59 60  1  0  0  0  0
 59 61  1  0  0  0  0
 59 62  1  0  0  0  0
 19 63  1  0  0  0  0
 63 64  1  0  0  0  0
 64 65  1  0  0  0  0
 65 66  1  0  0  0  0
 66 67  1  0  0  0  0
 66 68  1  0  0  0  0
 66 69  1  0  0  0  0
 65 70  1  0  0  0  0
 70 71  1  0  0  0  0
 70 72  1  0  0  0  0
 70 73  1  0  0  0  0
 65 74  1  0  0  0  0
 63 75  1  0  0  0  0
 74 75  1  0  0  0  0
 74 76  1  0  0  0  0
 76 77  1  0  0  0  0
 76 78  1  0  0  0  0
 76 79  1  0  0  0  0
 74 80  1  0  0  0  0
 80 81  1  0  0  0  0
 80 82  1  0  0  0  0
 80 83  1  0  0  0  0
  4 84  1  0  0  0  0
 14 85  1  0  0  0  0
 19 86  1  0  0  0  0
 20 86  1  0  0  0  0
 86 87  4  0  0  0  0
 86 88  4  0  0  0  0
 87 89  4  0  0  0  0
 87 90  1  0  0  0  0
 88 91  4  0  0  0  0
 89 92  4  0  0  0  0
 91 92  4  0  0  0  0
 89 93  1  0  0  0  0
 91 94  1  0  0  0  0
 92 95  1  0  0  0  0
 94 96  1  0  0  0  0
 94 97  1  0  0  0  0
 94 98  1  0  0  0  0
 96 99  4  0  0  0  0
 96100  4  0  0  0  0
 99101  4  0  0  0  0
 99102  1  0  0  0  0
100103  4  0  0  0  0
100104  1  0  0  0  0
101105  4  0  0  0  0
103105  4  0  0  0  0
101106  1  0  0  0  0
103107  1  0  0  0  0
105108  1  0  0  0  0
M  END
