
  xtb     01142215123D
 xtb: 6.4.1 (1a32961)
103111  0     0  0            999 V2000
   -0.8978   -2.0014   -0.3982 N   0  0  0  0  0  0  0  0  0  0  0  0
   -2.1609   -1.5509   -0.5360 C   0  0  0  0  0  0  0  0  0  0  0  0
   -3.0383   -2.1418   -1.4557 C   0  0  0  0  0  0  0  0  0  0  0  0
   -2.6092   -3.1876   -2.2413 C   0  0  0  0  0  0  0  0  0  0  0  0
   -1.2976   -3.6365   -2.0940 C   0  0  0  0  0  0  0  0  0  0  0  0
   -0.4948   -3.0130   -1.1634 C   0  0  0  0  0  0  0  0  0  0  0  0
    0.5264   -3.3321   -1.0086 H   0  0  0  0  0  0  0  0  0  0  0  0
   -0.9183   -4.4525   -2.6873 H   0  0  0  0  0  0  0  0  0  0  0  0
   -4.0500   -1.7841   -1.5556 H   0  0  0  0  0  0  0  0  0  0  0  0
   -2.5406   -0.4314    0.3125 C   0  0  0  0  0  0  0  0  0  0  0  0
   -1.5934    0.0327    1.1572 N   0  0  0  0  0  0  0  0  0  0  0  0
   -1.9009    1.0463    1.9638 C   0  0  0  0  0  0  0  0  0  0  0  0
   -3.1357    1.6601    1.9820 C   0  0  0  0  0  0  0  0  0  0  0  0
   -4.1176    1.2058    1.1038 C   0  0  0  0  0  0  0  0  0  0  0  0
   -3.8117    0.1567    0.2656 C   0  0  0  0  0  0  0  0  0  0  0  0
   -4.5574   -0.2064   -0.4222 H   0  0  0  0  0  0  0  0  0  0  0  0
   -3.3312    2.4703    2.6658 H   0  0  0  0  0  0  0  0  0  0  0  0
   -1.1043    1.3729    2.6141 H   0  0  0  0  0  0  0  0  0  0  0  0
    0.4215   -0.8165    0.9133 Ir  0  0  0  0  0  0  0  0  0  0  0  0
    0.8726   -2.2303    1.5405 H   0  0  0  0  0  0  0  0  0  0  0  0
    0.3922    0.6625   -0.5650 B   0  0  0  0  0  0  0  0  0  0  0  0
   -0.3188    0.4474   -1.7344 O   0  0  0  0  0  0  0  0  0  0  0  0
   -0.4246    1.6666   -2.4756 C   0  0  0  0  0  0  0  0  0  0  0  0
   -0.2695    1.3805   -3.9673 C   0  0  0  0  0  0  0  0  0  0  0  0
    0.6263    0.7981   -4.1564 H   0  0  0  0  0  0  0  0  0  0  0  0
   -0.2242    2.3133   -4.5236 H   0  0  0  0  0  0  0  0  0  0  0  0
   -1.1266    0.8070   -4.3124 H   0  0  0  0  0  0  0  0  0  0  0  0
   -1.8286    2.2311   -2.2126 C   0  0  0  0  0  0  0  0  0  0  0  0
   -2.0023    3.1383   -2.7841 H   0  0  0  0  0  0  0  0  0  0  0  0
   -2.5642    1.4830   -2.5025 H   0  0  0  0  0  0  0  0  0  0  0  0
   -1.9571    2.4346   -1.1513 H   0  0  0  0  0  0  0  0  0  0  0  0
    0.7071    2.5453   -1.8492 C   0  0  0  0  0  0  0  0  0  0  0  0
    0.8840    1.9486   -0.5582 O   0  0  0  0  0  0  0  0  0  0  0  0
    2.0426    2.3988   -2.5889 C   0  0  0  0  0  0  0  0  0  0  0  0
    2.3134    1.3465   -2.6301 H   0  0  0  0  0  0  0  0  0  0  0  0
    1.9925    2.8208   -3.5886 H   0  0  0  0  0  0  0  0  0  0  0  0
    2.8126    2.9174   -2.0223 H   0  0  0  0  0  0  0  0  0  0  0  0
    0.3662    4.0266   -1.6983 C   0  0  0  0  0  0  0  0  0  0  0  0
   -0.4664    4.1707   -1.0167 H   0  0  0  0  0  0  0  0  0  0  0  0
    1.2290    4.5513   -1.2949 H   0  0  0  0  0  0  0  0  0  0  0  0
    0.1194    4.4527   -2.6676 H   0  0  0  0  0  0  0  0  0  0  0  0
    1.5573    0.6321    1.8967 B   0  0  0  0  0  0  0  0  0  0  0  0
    2.9302    0.7292    1.9625 O   0  0  0  0  0  0  0  0  0  0  0  0
    3.3074    2.0003    2.5097 C   0  0  0  0  0  0  0  0  0  0  0  0
    4.5280    1.8356    3.4135 C   0  0  0  0  0  0  0  0  0  0  0  0
    4.3609    1.0647    4.1580 H   0  0  0  0  0  0  0  0  0  0  0  0
    5.3826    1.5417    2.8095 H   0  0  0  0  0  0  0  0  0  0  0  0
    4.7555    2.7759    3.9083 H   0  0  0  0  0  0  0  0  0  0  0  0
    3.6664    2.8989    1.3200 C   0  0  0  0  0  0  0  0  0  0  0  0
    3.9530    3.8955    1.6429 H   0  0  0  0  0  0  0  0  0  0  0  0
    4.4978    2.4480    0.7826 H   0  0  0  0  0  0  0  0  0  0  0  0
    2.8162    2.9429    0.6441 H   0  0  0  0  0  0  0  0  0  0  0  0
    2.0002    2.4591    3.2400 C   0  0  0  0  0  0  0  0  0  0  0  0
    0.9891    1.6773    2.5922 O   0  0  0  0  0  0  0  0  0  0  0  0
    1.6692    3.9428    3.0926 C   0  0  0  0  0  0  0  0  0  0  0  0
    1.4899    4.1922    2.0522 H   0  0  0  0  0  0  0  0  0  0  0  0
    0.7663    4.1645    3.6565 H   0  0  0  0  0  0  0  0  0  0  0  0
    2.4830    4.5491    3.4815 H   0  0  0  0  0  0  0  0  0  0  0  0
    1.9771    2.0785    4.7262 C   0  0  0  0  0  0  0  0  0  0  0  0
    2.1404    1.0100    4.8321 H   0  0  0  0  0  0  0  0  0  0  0  0
    2.7245    2.6317    5.2864 H   0  0  0  0  0  0  0  0  0  0  0  0
    0.9929    2.3039    5.1301 H   0  0  0  0  0  0  0  0  0  0  0  0
    2.2782   -1.3309    0.1741 B   0  0  0  0  0  0  0  0  0  0  0  0
    3.1431   -2.2713    0.6943 O   0  0  0  0  0  0  0  0  0  0  0  0
    4.4056   -2.2183    0.0181 C   0  0  0  0  0  0  0  0  0  0  0  0
    5.3638   -1.4588    0.9421 C   0  0  0  0  0  0  0  0  0  0  0  0
    4.9231   -0.4972    1.1893 H   0  0  0  0  0  0  0  0  0  0  0  0
    5.4731   -2.0248    1.8636 H   0  0  0  0  0  0  0  0  0  0  0  0
    6.3410   -1.3306    0.4869 H   0  0  0  0  0  0  0  0  0  0  0  0
    4.9290   -3.6383   -0.1982 C   0  0  0  0  0  0  0  0  0  0  0  0
    5.1162   -4.0942    0.7704 H   0  0  0  0  0  0  0  0  0  0  0  0
    5.8576   -3.6121   -0.7617 H   0  0  0  0  0  0  0  0  0  0  0  0
    4.2039   -4.2514   -0.7227 H   0  0  0  0  0  0  0  0  0  0  0  0
    4.0657   -1.4298   -1.2959 C   0  0  0  0  0  0  0  0  0  0  0  0
    2.8172   -0.7992   -0.9770 O   0  0  0  0  0  0  0  0  0  0  0  0
    5.0835   -0.3571   -1.6813 C   0  0  0  0  0  0  0  0  0  0  0  0
    6.0645   -0.8005   -1.8283 H   0  0  0  0  0  0  0  0  0  0  0  0
    4.7687    0.1145   -2.6089 H   0  0  0  0  0  0  0  0  0  0  0  0
    5.1347    0.4081   -0.9144 H   0  0  0  0  0  0  0  0  0  0  0  0
    3.8184   -2.3416   -2.5059 C   0  0  0  0  0  0  0  0  0  0  0  0
    3.0662   -3.0884   -2.2674 H   0  0  0  0  0  0  0  0  0  0  0  0
    3.4391   -1.7352   -3.3251 H   0  0  0  0  0  0  0  0  0  0  0  0
    4.7352   -2.8297   -2.8224 H   0  0  0  0  0  0  0  0  0  0  0  0
   -3.2747   -3.6484   -2.9556 H   0  0  0  0  0  0  0  0  0  0  0  0
   -5.0954    1.6628    1.0797 H   0  0  0  0  0  0  0  0  0  0  0  0
    0.2359   -1.6814    2.9603 C   0  0  0  0  0  0  0  0  0  0  0  0
   -1.0671   -2.0365    3.3502 C   0  0  0  0  0  0  0  0  0  0  0  0
    1.2367   -1.6080    3.9162 C   0  0  0  0  0  0  0  0  0  0  0  0
   -1.4122   -2.2148    4.6720 C   0  0  0  0  0  0  0  0  0  0  0  0
   -1.8315   -2.1830    2.5989 H   0  0  0  0  0  0  0  0  0  0  0  0
    0.9013   -1.7983    5.2527 C   0  0  0  0  0  0  0  0  0  0  0  0
    2.2542   -1.4193    3.6111 H   0  0  0  0  0  0  0  0  0  0  0  0
   -0.4277   -2.0895    5.6521 C   0  0  0  0  0  0  0  0  0  0  0  0
   -2.4270   -2.4695    4.9472 H   0  0  0  0  0  0  0  0  0  0  0  0
    1.6814   -1.7734    6.3773 N   0  0  0  0  0  0  0  0  0  0  0  0
   -0.4025   -2.2381    7.0659 C   0  0  0  0  0  0  0  0  0  0  0  0
    3.1060   -1.5956    6.4146 C   0  0  0  0  0  0  0  0  0  0  0  0
    0.8886   -2.0459    7.4569 C   0  0  0  0  0  0  0  0  0  0  0  0
   -1.2376   -2.4614    7.7007 H   0  0  0  0  0  0  0  0  0  0  0  0
    3.4064   -0.8904    5.6407 H   0  0  0  0  0  0  0  0  0  0  0  0
    3.6242   -2.5430    6.2388 H   0  0  0  0  0  0  0  0  0  0  0  0
    3.3993   -1.2053    7.3883 H   0  0  0  0  0  0  0  0  0  0  0  0
    1.3107   -2.0798    8.4437 H   0  0  0  0  0  0  0  0  0  0  0  0
  1  2  4  0  0  0  0
  2  3  4  0  0  0  0
  3  4  4  0  0  0  0
  4  5  4  0  0  0  0
  1  6  4  0  0  0  0
  5  6  4  0  0  0  0
  6  7  1  0  0  0  0
  5  8  1  0  0  0  0
  3  9  1  0  0  0  0
  2 10  1  0  0  0  0
 10 11  4  0  0  0  0
 11 12  4  0  0  0  0
 12 13  4  0  0  0  0
 13 14  4  0  0  0  0
 10 15  4  0  0  0  0
 14 15  4  0  0  0  0
 15 16  1  0  0  0  0
 13 17  1  0  0  0  0
 12 18  1  0  0  0  0
  1 19  1  0  0  0  0
 11 19  1  0  0  0  0
 19 20  1  0  0  0  0
 19 21  1  0  0  0  0
 21 22  1  0  0  0  0
 22 23  1  0  0  0  0
 23 24  1  0  0  0  0
 24 25  1  0  0  0  0
 24 26  1  0  0  0  0
 24 27  1  0  0  0  0
 23 28  1  0  0  0  0
 28 29  1  0  0  0  0
 28 30  1  0  0  0  0
 28 31  1  0  0  0  0
 23 32  1  0  0  0  0
 21 33  1  0  0  0  0
 32 33  1  0  0  0  0
 32 34  1  0  0  0  0
 34 35  1  0  0  0  0
 34 36  1  0  0  0  0
 34 37  1  0  0  0  0
 32 38  1  0  0  0  0
 38 39  1  0  0  0  0
 38 40  1  0  0  0  0
 38 41  1  0  0  0  0
 19 42  1  0  0  0  0
 42 43  1  0  0  0  0
 43 44  1  0  0  0  0
 44 45  1  0  0  0  0
 45 46  1  0  0  0  0
 45 47  1  0  0  0  0
 45 48  1  0  0  0  0
 44 49  1  0  0  0  0
 49 50  1  0  0  0  0
 49 51  1  0  0  0  0
 49 52  1  0  0  0  0
 44 53  1  0  0  0  0
 42 54  1  0  0  0  0
 53 54  1  0  0  0  0
 53 55  1  0  0  0  0
 55 56  1  0  0  0  0
 55 57  1  0  0  0  0
 55 58  1  0  0  0  0
 53 59  1  0  0  0  0
 59 60  1  0  0  0  0
 59 61  1  0  0  0  0
 59 62  1  0  0  0  0
 19 63  1  0  0  0  0
 63 64  1  0  0  0  0
 64 65  1  0  0  0  0
 65 66  1  0  0  0  0
 66 67  1  0  0  0  0
 66 68  1  0  0  0  0
 66 69  1  0  0  0  0
 65 70  1  0  0  0  0
 70 71  1  0  0  0  0
 70 72  1  0  0  0  0
 70 73  1  0  0  0  0
 65 74  1  0  0  0  0
 63 75  1  0  0  0  0
 74 75  1  0  0  0  0
 74 76  1  0  0  0  0
 76 77  1  0  0  0  0
 76 78  1  0  0  0  0
 76 79  1  0  0  0  0
 74 80  1  0  0  0  0
 80 81  1  0  0  0  0
 80 82  1  0  0  0  0
 80 83  1  0  0  0  0
  4 84  1  0  0  0  0
 14 85  1  0  0  0  0
 19 86  1  0  0  0  0
 20 86  1  0  0  0  0
 86 87  4  0  0  0  0
 86 88  4  0  0  0  0
 87 89  2  0  0  0  0
 87 90  1  0  0  0  0
 88 91  4  0  0  0  0
 88 92  1  0  0  0  0
 89 93  4  0  0  0  0
 91 93  4  0  0  0  0
 89 94  1  0  0  0  0
 91 95  1  0  0  0  0
 93 96  4  0  0  0  0
 95 97  1  0  0  0  0
 95 98  1  0  0  0  0
 96 98  2  0  0  0  0
 96 99  1  0  0  0  0
 97100  1  0  0  0  0
 97101  1  0  0  0  0
 97102  1  0  0  0  0
 98103  1  0  0  0  0
M  END
