   14

C         -0.08169       -1.21009        0.01008
C          1.31515       -1.21572        0.00409
C          2.02857       -0.01033       -0.00276
C          3.52920       -0.00354       -0.01039
C          1.32414        1.20133       -0.00045
C         -0.07252        1.20750        0.00510
C         -0.76939        0.00139        0.00939
Cl        -2.49017        0.00762        0.01366
H          1.84125       -2.16811        0.00428
H          3.93496       -1.02042       -0.03106
H          3.90864        0.49200        0.88878
H          3.89928        0.52253       -0.89621
H          1.86128        2.14748       -0.00361
H         -0.60781        2.15296        0.00557
