
  xtb     01142215263D
 xtb: 6.4.1 (1a32961)
 95102  0     0  0            999 V2000
   -0.9952   -2.0183   -0.3276 N   0  0  0  0  0  0  0  0  0  0  0  0
   -2.2118   -1.4770   -0.5137 C   0  0  0  0  0  0  0  0  0  0  0  0
   -3.0734   -1.9644   -1.5026 C   0  0  0  0  0  0  0  0  0  0  0  0
   -2.6760   -3.0192   -2.2972 C   0  0  0  0  0  0  0  0  0  0  0  0
   -1.4184   -3.5752   -2.0867 C   0  0  0  0  0  0  0  0  0  0  0  0
   -0.6224   -3.0373   -1.0954 C   0  0  0  0  0  0  0  0  0  0  0  0
    0.3618   -3.4358   -0.8947 H   0  0  0  0  0  0  0  0  0  0  0  0
   -1.0674   -4.4024   -2.6815 H   0  0  0  0  0  0  0  0  0  0  0  0
   -4.0404   -1.5164   -1.6599 H   0  0  0  0  0  0  0  0  0  0  0  0
   -2.5610   -0.3552    0.3561 C   0  0  0  0  0  0  0  0  0  0  0  0
   -1.5898    0.0985    1.1738 N   0  0  0  0  0  0  0  0  0  0  0  0
   -1.8569    1.1208    1.9813 C   0  0  0  0  0  0  0  0  0  0  0  0
   -3.0863    1.7490    2.0316 C   0  0  0  0  0  0  0  0  0  0  0  0
   -4.0996    1.2920    1.1956 C   0  0  0  0  0  0  0  0  0  0  0  0
   -3.8305    0.2335    0.3527 C   0  0  0  0  0  0  0  0  0  0  0  0
   -4.6058   -0.1381   -0.2959 H   0  0  0  0  0  0  0  0  0  0  0  0
   -3.2501    2.5694    2.7110 H   0  0  0  0  0  0  0  0  0  0  0  0
   -1.0369    1.4416    2.6055 H   0  0  0  0  0  0  0  0  0  0  0  0
    0.4215   -0.8165    0.9133 Ir  0  0  0  0  0  0  0  0  0  0  0  0
    0.8726   -2.2303    1.5405 H   0  0  0  0  0  0  0  0  0  0  0  0
    0.4104    0.5362   -0.6642 B   0  0  0  0  0  0  0  0  0  0  0  0
   -0.1026    0.1611   -1.8899 O   0  0  0  0  0  0  0  0  0  0  0  0
   -0.1960    1.3023   -2.7518 C   0  0  0  0  0  0  0  0  0  0  0  0
    0.2261    0.9097   -4.1650 C   0  0  0  0  0  0  0  0  0  0  0  0
    1.1891    0.4106   -4.1502 H   0  0  0  0  0  0  0  0  0  0  0  0
    0.2781    1.7903   -4.7998 H   0  0  0  0  0  0  0  0  0  0  0  0
   -0.5071    0.2211   -4.5776 H   0  0  0  0  0  0  0  0  0  0  0  0
   -1.6689    1.7355   -2.7631 C   0  0  0  0  0  0  0  0  0  0  0  0
   -1.8258    2.5738   -3.4352 H   0  0  0  0  0  0  0  0  0  0  0  0
   -2.2752    0.8953   -3.0955 H   0  0  0  0  0  0  0  0  0  0  0  0
   -1.9868    2.0054   -1.7580 H   0  0  0  0  0  0  0  0  0  0  0  0
    0.7371    2.3392   -2.0439 C   0  0  0  0  0  0  0  0  0  0  0  0
    0.7534    1.8669   -0.6878 O   0  0  0  0  0  0  0  0  0  0  0  0
    2.1819    2.2663   -2.5519 C   0  0  0  0  0  0  0  0  0  0  0  0
    2.5485    1.2501   -2.4287 H   0  0  0  0  0  0  0  0  0  0  0  0
    2.2542    2.5801   -3.5892 H   0  0  0  0  0  0  0  0  0  0  0  0
    2.8006    2.9186   -1.9407 H   0  0  0  0  0  0  0  0  0  0  0  0
    0.2495    3.7856   -2.0888 C   0  0  0  0  0  0  0  0  0  0  0  0
   -0.7028    3.8989   -1.5805 H   0  0  0  0  0  0  0  0  0  0  0  0
    0.9770    4.4212   -1.5901 H   0  0  0  0  0  0  0  0  0  0  0  0
    0.1503    4.1109   -3.1211 H   0  0  0  0  0  0  0  0  0  0  0  0
    1.6228    0.6359    1.8221 B   0  0  0  0  0  0  0  0  0  0  0  0
    2.9475    0.9112    1.6412 O   0  0  0  0  0  0  0  0  0  0  0  0
    3.3045    2.1329    2.3040 C   0  0  0  0  0  0  0  0  0  0  0  0
    4.6460    1.9523    3.0138 C   0  0  0  0  0  0  0  0  0  0  0  0
    4.6268    1.0813    3.6608 H   0  0  0  0  0  0  0  0  0  0  0  0
    5.4240    1.8034    2.2693 H   0  0  0  0  0  0  0  0  0  0  0  0
    4.8858    2.8371    3.5968 H   0  0  0  0  0  0  0  0  0  0  0  0
    3.4457    3.1938    1.2061 C   0  0  0  0  0  0  0  0  0  0  0  0
    3.6870    4.1676    1.6211 H   0  0  0  0  0  0  0  0  0  0  0  0
    4.2431    2.8868    0.5335 H   0  0  0  0  0  0  0  0  0  0  0  0
    2.5236    3.2387    0.6329 H   0  0  0  0  0  0  0  0  0  0  0  0
    2.0840    2.3888    3.2588 C   0  0  0  0  0  0  0  0  0  0  0  0
    1.0767    1.5088    2.7372 O   0  0  0  0  0  0  0  0  0  0  0  0
    1.5448    3.8195    3.2408 C   0  0  0  0  0  0  0  0  0  0  0  0
    1.1865    4.0838    2.2514 H   0  0  0  0  0  0  0  0  0  0  0  0
    0.7125    3.8919    3.9368 H   0  0  0  0  0  0  0  0  0  0  0  0
    2.3188    4.5162    3.5498 H   0  0  0  0  0  0  0  0  0  0  0  0
    2.3453    1.9752    4.7121 C   0  0  0  0  0  0  0  0  0  0  0  0
    2.6825    0.9445    4.7602 H   0  0  0  0  0  0  0  0  0  0  0  0
    3.0838    2.6229    5.1741 H   0  0  0  0  0  0  0  0  0  0  0  0
    1.4144    2.0490    5.2702 H   0  0  0  0  0  0  0  0  0  0  0  0
    2.2782   -1.3309    0.1741 B   0  0  0  0  0  0  0  0  0  0  0  0
    3.0576   -2.3391    0.6979 O   0  0  0  0  0  0  0  0  0  0  0  0
    4.3710   -2.2973    0.1243 C   0  0  0  0  0  0  0  0  0  0  0  0
    5.2717   -1.6108    1.1559 C   0  0  0  0  0  0  0  0  0  0  0  0
    4.8605   -0.6327    1.3867 H   0  0  0  0  0  0  0  0  0  0  0  0
    5.2561   -2.1988    2.0702 H   0  0  0  0  0  0  0  0  0  0  0  0
    6.2945   -1.5267    0.8022 H   0  0  0  0  0  0  0  0  0  0  0  0
    4.8662   -3.7229   -0.1170 C   0  0  0  0  0  0  0  0  0  0  0  0
    4.9603   -4.2254    0.8422 H   0  0  0  0  0  0  0  0  0  0  0  0
    5.8383   -3.7037   -0.6014 H   0  0  0  0  0  0  0  0  0  0  0  0
    4.1682   -4.2876   -0.7260 H   0  0  0  0  0  0  0  0  0  0  0  0
    4.1541   -1.4374   -1.1706 C   0  0  0  0  0  0  0  0  0  0  0  0
    2.9070   -0.7721   -0.9098 O   0  0  0  0  0  0  0  0  0  0  0  0
    5.2329   -0.3875   -1.4284 C   0  0  0  0  0  0  0  0  0  0  0  0
    6.2078   -0.8595   -1.5114 H   0  0  0  0  0  0  0  0  0  0  0  0
    5.0120    0.1304   -2.3583 H   0  0  0  0  0  0  0  0  0  0  0  0
    5.2423    0.3424   -0.6267 H   0  0  0  0  0  0  0  0  0  0  0  0
    3.9586   -2.2840   -2.4352 C   0  0  0  0  0  0  0  0  0  0  0  0
    3.1621   -3.0068   -2.2830 H   0  0  0  0  0  0  0  0  0  0  0  0
    3.6647   -1.6273   -3.2503 H   0  0  0  0  0  0  0  0  0  0  0  0
    4.8764   -2.7963   -2.7066 H   0  0  0  0  0  0  0  0  0  0  0  0
   -3.3284   -3.4019   -3.0671 H   0  0  0  0  0  0  0  0  0  0  0  0
   -5.0760    1.7517    1.2050 H   0  0  0  0  0  0  0  0  0  0  0  0
    0.2359   -1.6814    2.9603 C   0  0  0  0  0  0  0  0  0  0  0  0
   -1.0482   -2.0439    3.3793 C   0  0  0  0  0  0  0  0  0  0  0  0
    1.1536   -1.5669    4.0015 C   0  0  0  0  0  0  0  0  0  0  0  0
   -1.3681   -2.1621    4.7247 C   0  0  0  0  0  0  0  0  0  0  0  0
   -1.8184   -2.2376    2.6478 H   0  0  0  0  0  0  0  0  0  0  0  0
    2.4579   -1.3409    3.7415 F   0  0  0  0  0  0  0  0  0  0  0  0
    0.8919   -1.6742    5.2848 N   0  0  0  0  0  0  0  0  0  0  0  0
   -0.3512   -1.9441    5.6364 C   0  0  0  0  0  0  0  0  0  0  0  0
   -2.3608   -2.4183    5.0555 H   0  0  0  0  0  0  0  0  0  0  0  0
   -0.6448   -2.0382    7.3338 Cl  0  0  0  0  0  0  0  0  0  0  0  0
  1  2  4  0  0  0  0
  2  3  4  0  0  0  0
  3  4  4  0  0  0  0
  4  5  4  0  0  0  0
  1  6  4  0  0  0  0
  5  6  4  0  0  0  0
  6  7  1  0  0  0  0
  5  8  1  0  0  0  0
  3  9  1  0  0  0  0
  2 10  1  0  0  0  0
 10 11  4  0  0  0  0
 11 12  4  0  0  0  0
 12 13  4  0  0  0  0
 13 14  4  0  0  0  0
 10 15  4  0  0  0  0
 14 15  4  0  0  0  0
 15 16  1  0  0  0  0
 13 17  1  0  0  0  0
 12 18  1  0  0  0  0
  1 19  1  0  0  0  0
 11 19  1  0  0  0  0
 19 20  1  0  0  0  0
 19 21  1  0  0  0  0
 21 22  1  0  0  0  0
 22 23  1  0  0  0  0
 23 24  1  0  0  0  0
 24 25  1  0  0  0  0
 24 26  1  0  0  0  0
 24 27  1  0  0  0  0
 23 28  1  0  0  0  0
 28 29  1  0  0  0  0
 28 30  1  0  0  0  0
 28 31  1  0  0  0  0
 23 32  1  0  0  0  0
 21 33  1  0  0  0  0
 32 33  1  0  0  0  0
 32 34  1  0  0  0  0
 34 35  1  0  0  0  0
 34 36  1  0  0  0  0
 34 37  1  0  0  0  0
 32 38  1  0  0  0  0
 38 39  1  0  0  0  0
 38 40  1  0  0  0  0
 38 41  1  0  0  0  0
 19 42  1  0  0  0  0
 42 43  1  0  0  0  0
 43 44  1  0  0  0  0
 44 45  1  0  0  0  0
 45 46  1  0  0  0  0
 45 47  1  0  0  0  0
 45 48  1  0  0  0  0
 44 49  1  0  0  0  0
 49 50  1  0  0  0  0
 49 51  1  0  0  0  0
 49 52  1  0  0  0  0
 44 53  1  0  0  0  0
 42 54  1  0  0  0  0
 53 54  1  0  0  0  0
 53 55  1  0  0  0  0
 55 56  1  0  0  0  0
 55 57  1  0  0  0  0
 55 58  1  0  0  0  0
 53 59  1  0  0  0  0
 59 60  1  0  0  0  0
 59 61  1  0  0  0  0
 59 62  1  0  0  0  0
 19 63  1  0  0  0  0
 63 64  1  0  0  0  0
 64 65  1  0  0  0  0
 65 66  1  0  0  0  0
 66 67  1  0  0  0  0
 66 68  1  0  0  0  0
 66 69  1  0  0  0  0
 65 70  1  0  0  0  0
 70 71  1  0  0  0  0
 70 72  1  0  0  0  0
 70 73  1  0  0  0  0
 65 74  1  0  0  0  0
 63 75  1  0  0  0  0
 74 75  1  0  0  0  0
 74 76  1  0  0  0  0
 76 77  1  0  0  0  0
 76 78  1  0  0  0  0
 76 79  1  0  0  0  0
 74 80  1  0  0  0  0
 80 81  1  0  0  0  0
 80 82  1  0  0  0  0
 80 83  1  0  0  0  0
  4 84  1  0  0  0  0
 14 85  1  0  0  0  0
 19 86  1  0  0  0  0
 20 86  1  0  0  0  0
 86 87  4  0  0  0  0
 86 88  4  0  0  0  0
 87 89  4  0  0  0  0
 87 90  1  0  0  0  0
 88 91  1  0  0  0  0
 88 92  4  0  0  0  0
 89 93  4  0  0  0  0
 92 93  4  0  0  0  0
 89 94  1  0  0  0  0
 93 95  1  0  0  0  0
M  END
