
  xtb     01142213183D
 xtb: 6.4.1 (1a32961)
 96103  0     0  0            999 V2000
   -0.9822   -2.0165   -0.3571 N   0  0  0  0  0  0  0  0  0  0  0  0
   -2.2034   -1.4822   -0.5332 C   0  0  0  0  0  0  0  0  0  0  0  0
   -3.0459   -1.9269   -1.5571 C   0  0  0  0  0  0  0  0  0  0  0  0
   -2.6272   -2.9399   -2.3944 C   0  0  0  0  0  0  0  0  0  0  0  0
   -1.3681   -3.4947   -2.1912 C   0  0  0  0  0  0  0  0  0  0  0  0
   -0.5893   -2.9952   -1.1664 C   0  0  0  0  0  0  0  0  0  0  0  0
    0.3968   -3.3919   -0.9720 H   0  0  0  0  0  0  0  0  0  0  0  0
   -1.0019   -4.2907   -2.8185 H   0  0  0  0  0  0  0  0  0  0  0  0
   -4.0125   -1.4760   -1.7088 H   0  0  0  0  0  0  0  0  0  0  0  0
   -2.5798   -0.4113    0.3888 C   0  0  0  0  0  0  0  0  0  0  0  0
   -1.6087    0.0536    1.1999 N   0  0  0  0  0  0  0  0  0  0  0  0
   -1.8983    1.0334    2.0514 C   0  0  0  0  0  0  0  0  0  0  0  0
   -3.1542    1.5996    2.1593 C   0  0  0  0  0  0  0  0  0  0  0  0
   -4.1699    1.1228    1.3378 C   0  0  0  0  0  0  0  0  0  0  0  0
   -3.8760    0.1119    0.4454 C   0  0  0  0  0  0  0  0  0  0  0  0
   -4.6523   -0.2773   -0.1915 H   0  0  0  0  0  0  0  0  0  0  0  0
   -3.3357    2.3857    2.8735 H   0  0  0  0  0  0  0  0  0  0  0  0
   -1.0749    1.3728    2.6607 H   0  0  0  0  0  0  0  0  0  0  0  0
    0.4215   -0.8165    0.9133 Ir  0  0  0  0  0  0  0  0  0  0  0  0
    0.8726   -2.2303    1.5405 H   0  0  0  0  0  0  0  0  0  0  0  0
    0.4167    0.5486   -0.6542 B   0  0  0  0  0  0  0  0  0  0  0  0
   -0.1655    0.2194   -1.8634 O   0  0  0  0  0  0  0  0  0  0  0  0
   -0.2720    1.3854   -2.6883 C   0  0  0  0  0  0  0  0  0  0  0  0
    0.0579    1.0224   -4.1336 C   0  0  0  0  0  0  0  0  0  0  0  0
    1.0060    0.4982   -4.1895 H   0  0  0  0  0  0  0  0  0  0  0  0
    0.0981    1.9196   -4.7455 H   0  0  0  0  0  0  0  0  0  0  0  0
   -0.7172    0.3662   -4.5223 H   0  0  0  0  0  0  0  0  0  0  0  0
   -1.7304    1.8581   -2.6046 C   0  0  0  0  0  0  0  0  0  0  0  0
   -1.9005    2.7213   -3.2407 H   0  0  0  0  0  0  0  0  0  0  0  0
   -2.3773    1.0452   -2.9284 H   0  0  0  0  0  0  0  0  0  0  0  0
   -1.9847    2.1035   -1.5755 H   0  0  0  0  0  0  0  0  0  0  0  0
    0.7289    2.3768   -2.0077 C   0  0  0  0  0  0  0  0  0  0  0  0
    0.8139    1.8637   -0.6702 O   0  0  0  0  0  0  0  0  0  0  0  0
    2.1388    2.2862   -2.6036 C   0  0  0  0  0  0  0  0  0  0  0  0
    2.4858    1.2579   -2.5372 H   0  0  0  0  0  0  0  0  0  0  0  0
    2.1587    2.6333   -3.6325 H   0  0  0  0  0  0  0  0  0  0  0  0
    2.8093    2.9021   -2.0091 H   0  0  0  0  0  0  0  0  0  0  0  0
    0.2763    3.8352   -1.9806 C   0  0  0  0  0  0  0  0  0  0  0  0
   -0.6374    3.9559   -1.4071 H   0  0  0  0  0  0  0  0  0  0  0  0
    1.0506    4.4389   -1.5136 H   0  0  0  0  0  0  0  0  0  0  0  0
    0.1178    4.1934   -2.9946 H   0  0  0  0  0  0  0  0  0  0  0  0
    1.6020    0.6249    1.8583 B   0  0  0  0  0  0  0  0  0  0  0  0
    2.9658    0.7562    1.8632 O   0  0  0  0  0  0  0  0  0  0  0  0
    3.3309    2.0361    2.4032 C   0  0  0  0  0  0  0  0  0  0  0  0
    4.5881    1.9005    3.2598 C   0  0  0  0  0  0  0  0  0  0  0  0
    4.4714    1.1261    4.0109 H   0  0  0  0  0  0  0  0  0  0  0  0
    5.4261    1.6299    2.6226 H   0  0  0  0  0  0  0  0  0  0  0  0
    4.8105    2.8463    3.7463 H   0  0  0  0  0  0  0  0  0  0  0  0
    3.6206    2.9435    1.2019 C   0  0  0  0  0  0  0  0  0  0  0  0
    3.8938    3.9463    1.5160 H   0  0  0  0  0  0  0  0  0  0  0  0
    4.4420    2.5138    0.6334 H   0  0  0  0  0  0  0  0  0  0  0  0
    2.7448    2.9665    0.5585 H   0  0  0  0  0  0  0  0  0  0  0  0
    2.0405    2.4608    3.1848 C   0  0  0  0  0  0  0  0  0  0  0  0
    1.0271    1.6376    2.5890 O   0  0  0  0  0  0  0  0  0  0  0  0
    1.6488    3.9289    3.0284 C   0  0  0  0  0  0  0  0  0  0  0  0
    1.4095    4.1518    1.9940 H   0  0  0  0  0  0  0  0  0  0  0  0
    0.7682    4.1286    3.6339 H   0  0  0  0  0  0  0  0  0  0  0  0
    2.4577    4.5706    3.3662 H   0  0  0  0  0  0  0  0  0  0  0  0
    2.0946    2.1103    4.6772 C   0  0  0  0  0  0  0  0  0  0  0  0
    2.3346    1.0592    4.8118 H   0  0  0  0  0  0  0  0  0  0  0  0
    2.8264    2.7223    5.1952 H   0  0  0  0  0  0  0  0  0  0  0  0
    1.1152    2.2866    5.1163 H   0  0  0  0  0  0  0  0  0  0  0  0
    2.2782   -1.3309    0.1741 B   0  0  0  0  0  0  0  0  0  0  0  0
    3.0748   -2.3362    0.6766 O   0  0  0  0  0  0  0  0  0  0  0  0
    4.3724   -2.2946    0.0655 C   0  0  0  0  0  0  0  0  0  0  0  0
    5.3086   -1.6267    1.0783 C   0  0  0  0  0  0  0  0  0  0  0  0
    4.8999   -0.6578    1.3505 H   0  0  0  0  0  0  0  0  0  0  0  0
    5.3397   -2.2408    1.9748 H   0  0  0  0  0  0  0  0  0  0  0  0
    6.3150   -1.5241    0.6846 H   0  0  0  0  0  0  0  0  0  0  0  0
    4.8531   -3.7192   -0.2085 C   0  0  0  0  0  0  0  0  0  0  0  0
    4.9695   -4.2372    0.7399 H   0  0  0  0  0  0  0  0  0  0  0  0
    5.8123   -3.6976   -0.7179 H   0  0  0  0  0  0  0  0  0  0  0  0
    4.1367   -4.2713   -0.8074 H   0  0  0  0  0  0  0  0  0  0  0  0
    4.1257   -1.4185   -1.2134 C   0  0  0  0  0  0  0  0  0  0  0  0
    2.8873   -0.7553   -0.9134 O   0  0  0  0  0  0  0  0  0  0  0  0
    5.2003   -0.3685   -1.4888 C   0  0  0  0  0  0  0  0  0  0  0  0
    6.1684   -0.8436   -1.6202 H   0  0  0  0  0  0  0  0  0  0  0  0
    4.9465    0.1705   -2.3980 H   0  0  0  0  0  0  0  0  0  0  0  0
    5.2473    0.3451   -0.6737 H   0  0  0  0  0  0  0  0  0  0  0  0
    3.8957   -2.2479   -2.4838 C   0  0  0  0  0  0  0  0  0  0  0  0
    3.1038   -2.9733   -2.3202 H   0  0  0  0  0  0  0  0  0  0  0  0
    3.5783   -1.5798   -3.2809 H   0  0  0  0  0  0  0  0  0  0  0  0
    4.8056   -2.7554   -2.7889 H   0  0  0  0  0  0  0  0  0  0  0  0
   -3.2646   -3.2912   -3.1913 H   0  0  0  0  0  0  0  0  0  0  0  0
   -5.1675    1.5303    1.3963 H   0  0  0  0  0  0  0  0  0  0  0  0
    0.2359   -1.6814    2.9603 C   0  0  0  0  0  0  0  0  0  0  0  0
   -0.9746   -2.0730    3.4152 N   0  0  0  0  0  0  0  0  0  0  0  0
    1.0313   -1.5915    4.0969 C   0  0  0  0  0  0  0  0  0  0  0  0
   -1.0411   -2.2075    4.7400 N   0  0  0  0  0  0  0  0  0  0  0  0
   -1.8013   -2.2653    2.8723 H   0  0  0  0  0  0  0  0  0  0  0  0
    0.1846   -1.9100    5.1664 C   0  0  0  0  0  0  0  0  0  0  0  0
    2.0684   -1.3371    4.1428 H   0  0  0  0  0  0  0  0  0  0  0  0
    0.5212   -1.9510    6.6075 C   0  0  0  0  0  0  0  0  0  0  0  0
    1.7631   -1.4910    6.8548 F   0  0  0  0  0  0  0  0  0  0  0  0
   -0.3025   -1.2107    7.3796 F   0  0  0  0  0  0  0  0  0  0  0  0
    0.4839   -3.1951    7.1380 F   0  0  0  0  0  0  0  0  0  0  0  0
  1  2  4  0  0  0  0
  2  3  4  0  0  0  0
  3  4  4  0  0  0  0
  4  5  4  0  0  0  0
  1  6  4  0  0  0  0
  5  6  4  0  0  0  0
  6  7  1  0  0  0  0
  5  8  1  0  0  0  0
  3  9  1  0  0  0  0
  2 10  1  0  0  0  0
 10 11  4  0  0  0  0
 11 12  4  0  0  0  0
 12 13  4  0  0  0  0
 13 14  4  0  0  0  0
 10 15  4  0  0  0  0
 14 15  4  0  0  0  0
 15 16  1  0  0  0  0
 13 17  1  0  0  0  0
 12 18  1  0  0  0  0
  1 19  1  0  0  0  0
 11 19  1  0  0  0  0
 19 20  1  0  0  0  0
 19 21  1  0  0  0  0
 21 22  1  0  0  0  0
 22 23  1  0  0  0  0
 23 24  1  0  0  0  0
 24 25  1  0  0  0  0
 24 26  1  0  0  0  0
 24 27  1  0  0  0  0
 23 28  1  0  0  0  0
 28 29  1  0  0  0  0
 28 30  1  0  0  0  0
 28 31  1  0  0  0  0
 23 32  1  0  0  0  0
 21 33  1  0  0  0  0
 32 33  1  0  0  0  0
 32 34  1  0  0  0  0
 34 35  1  0  0  0  0
 34 36  1  0  0  0  0
 34 37  1  0  0  0  0
 32 38  1  0  0  0  0
 38 39  1  0  0  0  0
 38 40  1  0  0  0  0
 38 41  1  0  0  0  0
 19 42  1  0  0  0  0
 42 43  1  0  0  0  0
 43 44  1  0  0  0  0
 44 45  1  0  0  0  0
 45 46  1  0  0  0  0
 45 47  1  0  0  0  0
 45 48  1  0  0  0  0
 44 49  1  0  0  0  0
 49 50  1  0  0  0  0
 49 51  1  0  0  0  0
 49 52  1  0  0  0  0
 44 53  1  0  0  0  0
 42 54  1  0  0  0  0
 53 54  1  0  0  0  0
 53 55  1  0  0  0  0
 55 56  1  0  0  0  0
 55 57  1  0  0  0  0
 55 58  1  0  0  0  0
 53 59  1  0  0  0  0
 59 60  1  0  0  0  0
 59 61  1  0  0  0  0
 59 62  1  0  0  0  0
 19 63  1  0  0  0  0
 63 64  1  0  0  0  0
 64 65  1  0  0  0  0
 65 66  1  0  0  0  0
 66 67  1  0  0  0  0
 66 68  1  0  0  0  0
 66 69  1  0  0  0  0
 65 70  1  0  0  0  0
 70 71  1  0  0  0  0
 70 72  1  0  0  0  0
 70 73  1  0  0  0  0
 65 74  1  0  0  0  0
 63 75  1  0  0  0  0
 74 75  1  0  0  0  0
 74 76  1  0  0  0  0
 76 77  1  0  0  0  0
 76 78  1  0  0  0  0
 76 79  1  0  0  0  0
 74 80  1  0  0  0  0
 80 81  1  0  0  0  0
 80 82  1  0  0  0  0
 80 83  1  0  0  0  0
  4 84  1  0  0  0  0
 14 85  1  0  0  0  0
 19 86  1  0  0  0  0
 20 86  1  0  0  0  0
 86 87  4  0  0  0  0
 86 88  4  0  0  0  0
 87 89  4  0  0  0  0
 87 90  1  0  0  0  0
 88 91  4  0  0  0  0
 89 91  4  0  0  0  0
 88 92  1  0  0  0  0
 91 93  1  0  0  0  0
 93 94  1  0  0  0  0
 93 95  1  0  0  0  0
 93 96  1  0  0  0  0
M  END
