   22
Created with kallisto
C     -1.2435    1.3928    0.0067
C     -2.4256    0.6617   -0.0084
C     -0.0147    0.7261    0.0151
C     -2.3482   -0.7246    0.0042
H     -3.3853    1.1676   -0.0274
C      1.2024    1.4275    0.0251
C     -0.0247   -0.6830    0.0008
N     -1.1693   -1.3929    0.0035
C     -3.6037   -1.5439   -0.0025
C      2.4141    0.7393   -0.0061
H      1.2124    2.5143    0.0491
C      1.1978   -1.3449   -0.0263
H     -3.3783   -2.6048    0.1471
H     -4.1208   -1.4328   -0.9607
H     -4.2707   -1.2238    0.8043
C      2.4228   -0.6548   -0.0472
H      3.3461    1.2997   -0.0092
H      1.1912   -2.4327   -0.0460
C      3.7107   -1.4179   -0.1291
H      4.5734   -0.7444   -0.1683
H      3.7264   -2.0296   -1.0374
H      3.8274   -2.0659    0.7451
