
  xtb     01142213413D
 xtb: 6.4.1 (1a32961)
 93100  0     0  0            999 V2000
   -0.9116   -2.0437   -0.3474 N   0  0  0  0  0  0  0  0  0  0  0  0
   -2.1642   -1.5795   -0.5178 C   0  0  0  0  0  0  0  0  0  0  0  0
   -3.0454   -2.1990   -1.4138 C   0  0  0  0  0  0  0  0  0  0  0  0
   -2.6303   -3.2945   -2.1381 C   0  0  0  0  0  0  0  0  0  0  0  0
   -1.3301   -3.7603   -1.9547 C   0  0  0  0  0  0  0  0  0  0  0  0
   -0.5209   -3.1018   -1.0533 C   0  0  0  0  0  0  0  0  0  0  0  0
    0.4929   -3.4310   -0.8739 H   0  0  0  0  0  0  0  0  0  0  0  0
   -0.9626   -4.6152   -2.4987 H   0  0  0  0  0  0  0  0  0  0  0  0
   -4.0489   -1.8279   -1.5418 H   0  0  0  0  0  0  0  0  0  0  0  0
   -2.5313   -0.4145    0.2763 C   0  0  0  0  0  0  0  0  0  0  0  0
   -1.5896    0.0588    1.1213 N   0  0  0  0  0  0  0  0  0  0  0  0
   -1.8845    1.1149    1.8766 C   0  0  0  0  0  0  0  0  0  0  0  0
   -3.1018    1.7637    1.8392 C   0  0  0  0  0  0  0  0  0  0  0  0
   -4.0766    1.2992    0.9597 C   0  0  0  0  0  0  0  0  0  0  0  0
   -3.7835    0.2046    0.1754 C   0  0  0  0  0  0  0  0  0  0  0  0
   -4.5234   -0.1660   -0.5145 H   0  0  0  0  0  0  0  0  0  0  0  0
   -3.2872    2.6109    2.4794 H   0  0  0  0  0  0  0  0  0  0  0  0
   -1.0917    1.4499    2.5274 H   0  0  0  0  0  0  0  0  0  0  0  0
    0.4215   -0.8165    0.9133 Ir  0  0  0  0  0  0  0  0  0  0  0  0
    0.8726   -2.2303    1.5405 H   0  0  0  0  0  0  0  0  0  0  0  0
    0.4383    0.5691   -0.6413 B   0  0  0  0  0  0  0  0  0  0  0  0
   -0.1413    0.2312   -1.8507 O   0  0  0  0  0  0  0  0  0  0  0  0
   -0.2148    1.3809   -2.6997 C   0  0  0  0  0  0  0  0  0  0  0  0
    0.1299    0.9811   -4.1324 C   0  0  0  0  0  0  0  0  0  0  0  0
    1.0693    0.4392   -4.1621 H   0  0  0  0  0  0  0  0  0  0  0  0
    0.1949    1.8637   -4.7635 H   0  0  0  0  0  0  0  0  0  0  0  0
   -0.6505    0.3297   -4.5184 H   0  0  0  0  0  0  0  0  0  0  0  0
   -1.6651    1.8826   -2.6486 C   0  0  0  0  0  0  0  0  0  0  0  0
   -1.8115    2.7316   -3.3097 H   0  0  0  0  0  0  0  0  0  0  0  0
   -2.3229    1.0728   -2.9585 H   0  0  0  0  0  0  0  0  0  0  0  0
   -1.9294    2.1592   -1.6298 H   0  0  0  0  0  0  0  0  0  0  0  0
    0.7950    2.3682   -2.0261 C   0  0  0  0  0  0  0  0  0  0  0  0
    0.8594    1.8785   -0.6797 O   0  0  0  0  0  0  0  0  0  0  0  0
    2.2096    2.2473   -2.6063 C   0  0  0  0  0  0  0  0  0  0  0  0
    2.5420    1.2162   -2.5147 H   0  0  0  0  0  0  0  0  0  0  0  0
    2.2447    2.5727   -3.6420 H   0  0  0  0  0  0  0  0  0  0  0  0
    2.8823    2.8663   -2.0173 H   0  0  0  0  0  0  0  0  0  0  0  0
    0.3650    3.8339   -2.0298 C   0  0  0  0  0  0  0  0  0  0  0  0
   -0.5511    3.9785   -1.4656 H   0  0  0  0  0  0  0  0  0  0  0  0
    1.1449    4.4345   -1.5680 H   0  0  0  0  0  0  0  0  0  0  0  0
    0.2193    4.1754   -3.0515 H   0  0  0  0  0  0  0  0  0  0  0  0
    1.5768    0.6302    1.8847 B   0  0  0  0  0  0  0  0  0  0  0  0
    2.9488    0.7152    1.9522 O   0  0  0  0  0  0  0  0  0  0  0  0
    3.3350    2.0052    2.4468 C   0  0  0  0  0  0  0  0  0  0  0  0
    4.5553    1.8714    3.3559 C   0  0  0  0  0  0  0  0  0  0  0  0
    4.3844    1.1361    4.1351 H   0  0  0  0  0  0  0  0  0  0  0  0
    5.4067    1.5453    2.7639 H   0  0  0  0  0  0  0  0  0  0  0  0
    4.7906    2.8317    3.8070 H   0  0  0  0  0  0  0  0  0  0  0  0
    3.6966    2.8494    1.2188 C   0  0  0  0  0  0  0  0  0  0  0  0
    3.9933    3.8561    1.4977 H   0  0  0  0  0  0  0  0  0  0  0  0
    4.5210    2.3681    0.6976 H   0  0  0  0  0  0  0  0  0  0  0  0
    2.8441    2.8718    0.5446 H   0  0  0  0  0  0  0  0  0  0  0  0
    2.0316    2.5040    3.1577 C   0  0  0  0  0  0  0  0  0  0  0  0
    1.0144    1.6984    2.5484 O   0  0  0  0  0  0  0  0  0  0  0  0
    1.7046    3.9798    2.9367 C   0  0  0  0  0  0  0  0  0  0  0  0
    1.5123    4.1731    1.8867 H   0  0  0  0  0  0  0  0  0  0  0  0
    0.8102    4.2356    3.4995 H   0  0  0  0  0  0  0  0  0  0  0  0
    2.5257    4.6023    3.2815 H   0  0  0  0  0  0  0  0  0  0  0  0
    2.0122    2.1995    4.6613 C   0  0  0  0  0  0  0  0  0  0  0  0
    2.2005    1.1426    4.8298 H   0  0  0  0  0  0  0  0  0  0  0  0
    2.7474    2.7982    5.1903 H   0  0  0  0  0  0  0  0  0  0  0  0
    1.0233    2.4292    5.0513 H   0  0  0  0  0  0  0  0  0  0  0  0
    2.2782   -1.3309    0.1741 B   0  0  0  0  0  0  0  0  0  0  0  0
    3.0492   -2.3758    0.6444 O   0  0  0  0  0  0  0  0  0  0  0  0
    4.3561   -2.3335    0.0583 C   0  0  0  0  0  0  0  0  0  0  0  0
    5.2810   -1.7024    1.1050 C   0  0  0  0  0  0  0  0  0  0  0  0
    4.8763   -0.7362    1.3935 H   0  0  0  0  0  0  0  0  0  0  0  0
    5.2878   -2.3392    1.9861 H   0  0  0  0  0  0  0  0  0  0  0  0
    6.2957   -1.6010    0.7328 H   0  0  0  0  0  0  0  0  0  0  0  0
    4.8270   -3.7552   -0.2459 C   0  0  0  0  0  0  0  0  0  0  0  0
    4.9216   -4.2995    0.6900 H   0  0  0  0  0  0  0  0  0  0  0  0
    5.7946   -3.7307   -0.7393 H   0  0  0  0  0  0  0  0  0  0  0  0
    4.1144   -4.2827   -0.8711 H   0  0  0  0  0  0  0  0  0  0  0  0
    4.1405   -1.4196   -1.1979 C   0  0  0  0  0  0  0  0  0  0  0  0
    2.9196   -0.7317   -0.8858 O   0  0  0  0  0  0  0  0  0  0  0  0
    5.2473   -0.3957   -1.4428 C   0  0  0  0  0  0  0  0  0  0  0  0
    6.2019   -0.8969   -1.5770 H   0  0  0  0  0  0  0  0  0  0  0  0
    5.0175    0.1703   -2.3420 H   0  0  0  0  0  0  0  0  0  0  0  0
    5.3091    0.2986   -0.6122 H   0  0  0  0  0  0  0  0  0  0  0  0
    3.8954   -2.2134   -2.4886 C   0  0  0  0  0  0  0  0  0  0  0  0
    3.0804   -2.9178   -2.3463 H   0  0  0  0  0  0  0  0  0  0  0  0
    3.6038   -1.5192   -3.2734 H   0  0  0  0  0  0  0  0  0  0  0  0
    4.7917   -2.7416   -2.7991 H   0  0  0  0  0  0  0  0  0  0  0  0
   -3.2993   -3.7802   -2.8321 H   0  0  0  0  0  0  0  0  0  0  0  0
   -5.0391    1.7833    0.8918 H   0  0  0  0  0  0  0  0  0  0  0  0
    0.2359   -1.6814    2.9603 C   0  0  0  0  0  0  0  0  0  0  0  0
   -0.9748   -1.9967    3.5047 C   0  0  0  0  0  0  0  0  0  0  0  0
    1.1212   -1.5923    4.0774 C   0  0  0  0  0  0  0  0  0  0  0  0
   -0.9073   -2.0689    4.8593 O   0  0  0  0  0  0  0  0  0  0  0  0
   -1.9370   -2.1867    3.0707 H   0  0  0  0  0  0  0  0  0  0  0  0
    0.3772   -1.8214    5.1894 C   0  0  0  0  0  0  0  0  0  0  0  0
    2.1698   -1.3846    4.0259 H   0  0  0  0  0  0  0  0  0  0  0  0
    0.6185   -1.8421    6.2342 H   0  0  0  0  0  0  0  0  0  0  0  0
  1  2  4  0  0  0  0
  2  3  4  0  0  0  0
  3  4  4  0  0  0  0
  4  5  4  0  0  0  0
  1  6  4  0  0  0  0
  5  6  4  0  0  0  0
  6  7  1  0  0  0  0
  5  8  1  0  0  0  0
  3  9  1  0  0  0  0
  2 10  1  0  0  0  0
 10 11  4  0  0  0  0
 11 12  4  0  0  0  0
 12 13  4  0  0  0  0
 13 14  4  0  0  0  0
 10 15  4  0  0  0  0
 14 15  4  0  0  0  0
 15 16  1  0  0  0  0
 13 17  1  0  0  0  0
 12 18  1  0  0  0  0
  1 19  1  0  0  0  0
 11 19  1  0  0  0  0
 19 20  1  0  0  0  0
 19 21  1  0  0  0  0
 21 22  1  0  0  0  0
 22 23  1  0  0  0  0
 23 24  1  0  0  0  0
 24 25  1  0  0  0  0
 24 26  1  0  0  0  0
 24 27  1  0  0  0  0
 23 28  1  0  0  0  0
 28 29  1  0  0  0  0
 28 30  1  0  0  0  0
 28 31  1  0  0  0  0
 23 32  1  0  0  0  0
 21 33  1  0  0  0  0
 32 33  1  0  0  0  0
 32 34  1  0  0  0  0
 34 35  1  0  0  0  0
 34 36  1  0  0  0  0
 34 37  1  0  0  0  0
 32 38  1  0  0  0  0
 38 39  1  0  0  0  0
 38 40  1  0  0  0  0
 38 41  1  0  0  0  0
 19 42  1  0  0  0  0
 42 43  1  0  0  0  0
 43 44  1  0  0  0  0
 44 45  1  0  0  0  0
 45 46  1  0  0  0  0
 45 47  1  0  0  0  0
 45 48  1  0  0  0  0
 44 49  1  0  0  0  0
 49 50  1  0  0  0  0
 49 51  1  0  0  0  0
 49 52  1  0  0  0  0
 44 53  1  0  0  0  0
 42 54  1  0  0  0  0
 53 54  1  0  0  0  0
 53 55  1  0  0  0  0
 55 56  1  0  0  0  0
 55 57  1  0  0  0  0
 55 58  1  0  0  0  0
 53 59  1  0  0  0  0
 59 60  1  0  0  0  0
 59 61  1  0  0  0  0
 59 62  1  0  0  0  0
 19 63  1  0  0  0  0
 63 64  1  0  0  0  0
 64 65  1  0  0  0  0
 65 66  1  0  0  0  0
 66 67  1  0  0  0  0
 66 68  1  0  0  0  0
 66 69  1  0  0  0  0
 65 70  1  0  0  0  0
 70 71  1  0  0  0  0
 70 72  1  0  0  0  0
 70 73  1  0  0  0  0
 65 74  1  0  0  0  0
 63 75  1  0  0  0  0
 74 75  1  0  0  0  0
 74 76  1  0  0  0  0
 76 77  1  0  0  0  0
 76 78  1  0  0  0  0
 76 79  1  0  0  0  0
 74 80  1  0  0  0  0
 80 81  1  0  0  0  0
 80 82  1  0  0  0  0
 80 83  1  0  0  0  0
  4 84  1  0  0  0  0
 14 85  1  0  0  0  0
 19 86  1  0  0  0  0
 20 86  1  0  0  0  0
 86 87  2  0  0  0  0
 86 88  4  0  0  0  0
 87 89  1  0  0  0  0
 87 90  1  0  0  0  0
 88 91  2  0  0  0  0
 89 91  1  0  0  0  0
 88 92  1  0  0  0  0
 91 93  1  0  0  0  0
M  END
