
  xtb     10082107153D
 xtb: 6.4.0 (f63f532)
 98105  0     0  0            999 V2000
   -0.9150   -2.0291   -0.3668 N   0  0  0  0  0  0  0  0  0  0  0  0
   -2.1789   -1.5845   -0.5014 C   0  0  0  0  0  0  0  0  0  0  0  0
   -3.0814   -2.2325   -1.3558 C   0  0  0  0  0  0  0  0  0  0  0  0
   -2.6710   -3.3255   -2.0864 C   0  0  0  0  0  0  0  0  0  0  0  0
   -1.3554   -3.7632   -1.9487 C   0  0  0  0  0  0  0  0  0  0  0  0
   -0.5290   -3.0848   -1.0781 C   0  0  0  0  0  0  0  0  0  0  0  0
    0.4959   -3.3947   -0.9294 H   0  0  0  0  0  0  0  0  0  0  0  0
   -0.9900   -4.6134   -2.5014 H   0  0  0  0  0  0  0  0  0  0  0  0
   -4.0979   -1.8860   -1.4441 H   0  0  0  0  0  0  0  0  0  0  0  0
   -2.5358   -0.4089    0.2812 C   0  0  0  0  0  0  0  0  0  0  0  0
   -1.5941    0.0616    1.1282 N   0  0  0  0  0  0  0  0  0  0  0  0
   -1.8821    1.1293    1.8707 C   0  0  0  0  0  0  0  0  0  0  0  0
   -3.0893    1.7940    1.8147 C   0  0  0  0  0  0  0  0  0  0  0  0
   -4.0614    1.3357    0.9285 C   0  0  0  0  0  0  0  0  0  0  0  0
   -3.7766    0.2289    0.1590 C   0  0  0  0  0  0  0  0  0  0  0  0
   -4.5124   -0.1354   -0.5386 H   0  0  0  0  0  0  0  0  0  0  0  0
   -3.2696    2.6487    2.4465 H   0  0  0  0  0  0  0  0  0  0  0  0
   -1.0925    1.4579    2.5288 H   0  0  0  0  0  0  0  0  0  0  0  0
    0.4215   -0.8165    0.9133 Ir  0  0  0  0  0  0  0  0  0  0  0  0
    0.8726   -2.2303    1.5405 H   0  0  0  0  0  0  0  0  0  0  0  0
    0.4008    0.6314   -0.5908 B   0  0  0  0  0  0  0  0  0  0  0  0
   -0.2464    0.3595   -1.7825 O   0  0  0  0  0  0  0  0  0  0  0  0
   -0.3266    1.5473   -2.5785 C   0  0  0  0  0  0  0  0  0  0  0  0
   -0.0806    1.2020   -4.0450 C   0  0  0  0  0  0  0  0  0  0  0  0
    0.8325    0.6264   -4.1547 H   0  0  0  0  0  0  0  0  0  0  0  0
   -0.0141    2.1110   -4.6371 H   0  0  0  0  0  0  0  0  0  0  0  0
   -0.9079    0.6013   -4.4156 H   0  0  0  0  0  0  0  0  0  0  0  0
   -1.7502    2.1001   -2.4190 C   0  0  0  0  0  0  0  0  0  0  0  0
   -1.9011    2.9793   -3.0383 H   0  0  0  0  0  0  0  0  0  0  0  0
   -2.4586    1.3297   -2.7174 H   0  0  0  0  0  0  0  0  0  0  0  0
   -1.9415    2.3476   -1.3766 H   0  0  0  0  0  0  0  0  0  0  0  0
    0.7552    2.4679   -1.9249 C   0  0  0  0  0  0  0  0  0  0  0  0
    0.8611    1.9281   -0.6001 O   0  0  0  0  0  0  0  0  0  0  0  0
    2.1339    2.3063   -2.5768 C   0  0  0  0  0  0  0  0  0  0  0  0
    2.4196    1.2575   -2.5483 H   0  0  0  0  0  0  0  0  0  0  0  0
    2.1375    2.6778   -3.5975 H   0  0  0  0  0  0  0  0  0  0  0  0
    2.8623    2.8644   -1.9933 H   0  0  0  0  0  0  0  0  0  0  0  0
    0.3904    3.9495   -1.8594 C   0  0  0  0  0  0  0  0  0  0  0  0
   -0.4862    4.1131   -1.2404 H   0  0  0  0  0  0  0  0  0  0  0  0
    1.2202    4.5012   -1.4242 H   0  0  0  0  0  0  0  0  0  0  0  0
    0.2036    4.3306   -2.8601 H   0  0  0  0  0  0  0  0  0  0  0  0
    1.5763    0.6326    1.8793 B   0  0  0  0  0  0  0  0  0  0  0  0
    2.9450    0.7679    1.8770 O   0  0  0  0  0  0  0  0  0  0  0  0
    3.3142    2.0399    2.4305 C   0  0  0  0  0  0  0  0  0  0  0  0
    4.5810    1.8947    3.2719 C   0  0  0  0  0  0  0  0  0  0  0  0
    4.4751    1.1046    4.0076 H   0  0  0  0  0  0  0  0  0  0  0  0
    5.4143    1.6419    2.6213 H   0  0  0  0  0  0  0  0  0  0  0  0
    4.8027    2.8322    3.7746 H   0  0  0  0  0  0  0  0  0  0  0  0
    3.5912    2.9687    1.2426 C   0  0  0  0  0  0  0  0  0  0  0  0
    3.8682    3.9659    1.5716 H   0  0  0  0  0  0  0  0  0  0  0  0
    4.4062    2.5491    0.6572 H   0  0  0  0  0  0  0  0  0  0  0  0
    2.7086    3.0037    0.6093 H   0  0  0  0  0  0  0  0  0  0  0  0
    2.0323    2.4487    3.2319 C   0  0  0  0  0  0  0  0  0  0  0  0
    1.0120    1.6427    2.6265 O   0  0  0  0  0  0  0  0  0  0  0  0
    1.6442    3.9216    3.1199 C   0  0  0  0  0  0  0  0  0  0  0  0
    1.4020    4.1760    2.0934 H   0  0  0  0  0  0  0  0  0  0  0  0
    0.7656    4.1049    3.7335 H   0  0  0  0  0  0  0  0  0  0  0  0
    2.4558    4.5519    3.4734 H   0  0  0  0  0  0  0  0  0  0  0  0
    2.1003    2.0523    4.7118 C   0  0  0  0  0  0  0  0  0  0  0  0
    2.3386    0.9962    4.7997 H   0  0  0  0  0  0  0  0  0  0  0  0
    2.8376    2.6465    5.2430 H   0  0  0  0  0  0  0  0  0  0  0  0
    1.1234    2.2133    5.1621 H   0  0  0  0  0  0  0  0  0  0  0  0
    2.2782   -1.3309    0.1741 B   0  0  0  0  0  0  0  0  0  0  0  0
    3.1021   -2.3025    0.7020 O   0  0  0  0  0  0  0  0  0  0  0  0
    4.3853   -2.2698    0.0638 C   0  0  0  0  0  0  0  0  0  0  0  0
    5.3336   -1.5533    1.0313 C   0  0  0  0  0  0  0  0  0  0  0  0
    4.9156   -0.5815    1.2779 H   0  0  0  0  0  0  0  0  0  0  0  0
    5.3930   -2.1353    1.9476 H   0  0  0  0  0  0  0  0  0  0  0  0
    6.3296   -1.4501    0.6122 H   0  0  0  0  0  0  0  0  0  0  0  0
    4.8776   -3.6992   -0.1631 C   0  0  0  0  0  0  0  0  0  0  0  0
    5.0194   -4.1776    0.8023 H   0  0  0  0  0  0  0  0  0  0  0  0
    5.8254   -3.6880   -0.6939 H   0  0  0  0  0  0  0  0  0  0  0  0
    4.1551   -4.2828   -0.7238 H   0  0  0  0  0  0  0  0  0  0  0  0
    4.1025   -1.4484   -1.2437 C   0  0  0  0  0  0  0  0  0  0  0  0
    2.8588   -0.7932   -0.9498 O   0  0  0  0  0  0  0  0  0  0  0  0
    5.1561   -0.3933   -1.5762 C   0  0  0  0  0  0  0  0  0  0  0  0
    6.1299   -0.8582   -1.7026 H   0  0  0  0  0  0  0  0  0  0  0  0
    4.8814    0.1048   -2.5026 H   0  0  0  0  0  0  0  0  0  0  0  0
    5.2025    0.3535   -0.7914 H   0  0  0  0  0  0  0  0  0  0  0  0
    3.8685   -2.3307   -2.4775 C   0  0  0  0  0  0  0  0  0  0  0  0
    3.0887   -3.0601   -2.2762 H   0  0  0  0  0  0  0  0  0  0  0  0
    3.5321   -1.6995   -3.2965 H   0  0  0  0  0  0  0  0  0  0  0  0
    4.7811   -2.8385   -2.7742 H   0  0  0  0  0  0  0  0  0  0  0  0
   -3.3554   -3.8315   -2.7502 H   0  0  0  0  0  0  0  0  0  0  0  0
   -5.0148    1.8348    0.8440 H   0  0  0  0  0  0  0  0  0  0  0  0
    0.2359   -1.6814    2.9603 C   0  0  0  0  0  0  0  0  0  0  0  0
   -1.0520   -2.0432    3.3559 C   0  0  0  0  0  0  0  0  0  0  0  0
    1.1916   -1.5775    3.9673 C   0  0  0  0  0  0  0  0  0  0  0  0
   -1.3229   -2.1869    4.7062 C   0  0  0  0  0  0  0  0  0  0  0  0
   -1.8420   -2.2175    2.6399 H   0  0  0  0  0  0  0  0  0  0  0  0
    0.8299   -1.7608    5.2987 C   0  0  0  0  0  0  0  0  0  0  0  0
    2.2183   -1.3665    3.7099 H   0  0  0  0  0  0  0  0  0  0  0  0
   -0.4178   -2.0489    5.6602 N   0  0  0  0  0  0  0  0  0  0  0  0
   -2.3200   -2.4415    5.0487 H   0  0  0  0  0  0  0  0  0  0  0  0
    1.8345   -1.6476    6.4062 C   0  0  0  0  0  0  0  0  0  0  0  0
    1.5160   -2.2515    7.2511 H   0  0  0  0  0  0  0  0  0  0  0  0
    1.9038   -0.6121    6.7378 H   0  0  0  0  0  0  0  0  0  0  0  0
    2.8156   -1.9698    6.0677 H   0  0  0  0  0  0  0  0  0  0  0  0
  1  2  4  0  0  0  0
  2  3  4  0  0  0  0
  3  4  4  0  0  0  0
  4  5  4  0  0  0  0
  1  6  4  0  0  0  0
  5  6  4  0  0  0  0
  6  7  1  0  0  0  0
  5  8  1  0  0  0  0
  3  9  1  0  0  0  0
  2 10  1  0  0  0  0
 10 11  4  0  0  0  0
 11 12  4  0  0  0  0
 12 13  4  0  0  0  0
 13 14  4  0  0  0  0
 10 15  4  0  0  0  0
 14 15  4  0  0  0  0
 15 16  1  0  0  0  0
 13 17  1  0  0  0  0
 12 18  1  0  0  0  0
  1 19  1  0  0  0  0
 11 19  1  0  0  0  0
 19 20  1  0  0  0  0
 19 21  1  0  0  0  0
 21 22  1  0  0  0  0
 22 23  1  0  0  0  0
 23 24  1  0  0  0  0
 24 25  1  0  0  0  0
 24 26  1  0  0  0  0
 24 27  1  0  0  0  0
 23 28  1  0  0  0  0
 28 29  1  0  0  0  0
 28 30  1  0  0  0  0
 28 31  1  0  0  0  0
 23 32  1  0  0  0  0
 21 33  1  0  0  0  0
 32 33  1  0  0  0  0
 32 34  1  0  0  0  0
 34 35  1  0  0  0  0
 34 36  1  0  0  0  0
 34 37  1  0  0  0  0
 32 38  1  0  0  0  0
 38 39  1  0  0  0  0
 38 40  1  0  0  0  0
 38 41  1  0  0  0  0
 19 42  1  0  0  0  0
 42 43  1  0  0  0  0
 43 44  1  0  0  0  0
 44 45  1  0  0  0  0
 45 46  1  0  0  0  0
 45 47  1  0  0  0  0
 45 48  1  0  0  0  0
 44 49  1  0  0  0  0
 49 50  1  0  0  0  0
 49 51  1  0  0  0  0
 49 52  1  0  0  0  0
 44 53  1  0  0  0  0
 42 54  1  0  0  0  0
 53 54  1  0  0  0  0
 53 55  1  0  0  0  0
 55 56  1  0  0  0  0
 55 57  1  0  0  0  0
 55 58  1  0  0  0  0
 53 59  1  0  0  0  0
 59 60  1  0  0  0  0
 59 61  1  0  0  0  0
 59 62  1  0  0  0  0
 19 63  1  0  0  0  0
 63 64  1  0  0  0  0
 64 65  1  0  0  0  0
 65 66  1  0  0  0  0
 66 67  1  0  0  0  0
 66 68  1  0  0  0  0
 66 69  1  0  0  0  0
 65 70  1  0  0  0  0
 70 71  1  0  0  0  0
 70 72  1  0  0  0  0
 70 73  1  0  0  0  0
 65 74  1  0  0  0  0
 63 75  1  0  0  0  0
 74 75  1  0  0  0  0
 74 76  1  0  0  0  0
 76 77  1  0  0  0  0
 76 78  1  0  0  0  0
 76 79  1  0  0  0  0
 74 80  1  0  0  0  0
 80 81  1  0  0  0  0
 80 82  1  0  0  0  0
 80 83  1  0  0  0  0
  4 84  1  0  0  0  0
 14 85  1  0  0  0  0
 19 86  1  0  0  0  0
 20 86  1  0  0  0  0
 86 87  4  0  0  0  0
 86 88  4  0  0  0  0
 87 89  4  0  0  0  0
 87 90  1  0  0  0  0
 88 91  4  0  0  0  0
 88 92  1  0  0  0  0
 89 93  4  0  0  0  0
 91 93  4  0  0  0  0
 89 94  1  0  0  0  0
 91 95  1  0  0  0  0
 95 96  1  0  0  0  0
 95 97  1  0  0  0  0
 95 98  1  0  0  0  0
M  END
