    8
Created with kallisto
C     -0.3163    1.1355   -0.0003
C     -1.1677   -0.0130    0.0017
C      1.0087    0.7694    0.0025
C     -0.4329   -1.1729    0.0055
H     -2.2500    0.0181    0.0007
Br     2.4230    1.9974    0.0027
S      1.2412   -0.9120    0.0061
Cl    -1.0468   -2.7762    0.0098
