
  xtb     10082107113D
 xtb: 6.4.0 (f63f532)
 23 24  0     0  0            999 V2000
    0.6743    0.4796    1.1175 C   0  0  0  0  0  0  0  0  0  0  0  0
    0.9081    1.0159   -0.1422 C   0  0  0  0  0  0  0  0  0  0  0  0
    1.7971    2.2282   -0.3041 C   0  0  0  0  0  0  0  0  0  0  0  0
    3.1813    1.8340   -0.4246 N   0  0  0  0  0  0  0  0  0  0  0  0
    3.8075    1.4941   -1.5803 C   0  0  0  0  0  0  0  0  0  0  0  0
    5.0872    1.1051   -1.2887 C   0  0  0  0  0  0  0  0  0  0  0  0
    5.2387    1.2065    0.1077 C   0  0  0  0  0  0  0  0  0  0  0  0
    4.0448    1.6528    0.6072 C   0  0  0  0  0  0  0  0  0  0  0  0
    0.3548    0.3935   -1.2535 C   0  0  0  0  0  0  0  0  0  0  0  0
   -0.4213   -0.7434   -1.1087 C   0  0  0  0  0  0  0  0  0  0  0  0
   -0.6500   -1.2714    0.1509 C   0  0  0  0  0  0  0  0  0  0  0  0
   -0.1011   -0.6572    1.2643 C   0  0  0  0  0  0  0  0  0  0  0  0
    1.1001    0.9551    1.9893 H   0  0  0  0  0  0  0  0  0  0  0  0
    1.6986    2.8842    0.5648 H   0  0  0  0  0  0  0  0  0  0  0  0
    1.5148    2.7828   -1.2029 H   0  0  0  0  0  0  0  0  0  0  0  0
    3.3056    1.5601   -2.5257 H   0  0  0  0  0  0  0  0  0  0  0  0
    5.8334    0.7881   -1.9919 H   0  0  0  0  0  0  0  0  0  0  0  0
    6.1222    0.9813    0.6736 H   0  0  0  0  0  0  0  0  0  0  0  0
    3.7567    1.8629    1.6186 H   0  0  0  0  0  0  0  0  0  0  0  0
    0.5297    0.8020   -2.2384 H   0  0  0  0  0  0  0  0  0  0  0  0
   -0.8481   -1.2176   -1.9802 H   0  0  0  0  0  0  0  0  0  0  0  0
   -1.2550   -2.1587    0.2649 H   0  0  0  0  0  0  0  0  0  0  0  0
   -0.2778   -1.0642    2.2491 H   0  0  0  0  0  0  0  0  0  0  0  0
  1  2  4  0  0  0  0
  2  3  1  0  0  0  0
  3  4  1  0  0  0  0
  4  5  4  0  0  0  0
  5  6  2  0  0  0  0
  6  7  4  0  0  0  0
  4  8  4  0  0  0  0
  7  8  2  0  0  0  0
  2  9  4  0  0  0  0
  9 10  4  0  0  0  0
 10 11  4  0  0  0  0
  1 12  4  0  0  0  0
 11 12  4  0  0  0  0
  1 13  1  0  0  0  0
  3 14  1  0  0  0  0
  3 15  1  0  0  0  0
  5 16  1  0  0  0  0
  6 17  1  0  0  0  0
  7 18  1  0  0  0  0
  8 19  1  0  0  0  0
  9 20  1  0  0  0  0
 10 21  1  0  0  0  0
 11 22  1  0  0  0  0
 12 23  1  0  0  0  0
M  END
