14

C         -0.30112       -1.08973        0.00666
C         -0.83525       -2.47505        0.01136
N         -1.11810        0.01739        0.00770
C         -0.35402        1.15696        0.00367
C         -0.88862        2.47475        0.00441
N         -1.34297        3.54175        0.00522
C          0.97087        0.77647       -0.00078
C          1.00413       -0.63946        0.00090
H         -1.93022       -2.48924        0.01267
H         -0.48765       -3.01151        0.90027
H         -0.48924       -3.01751       -0.87367
H         -2.13048       -0.00209        0.01136
H          1.82455        1.44272       -0.00447
H          1.88813       -1.26568       -0.00131
