
  xtb     01142215063D
 xtb: 6.4.1 (1a32961)
 99106  0     0  0            999 V2000
   -0.8921   -2.0225   -0.3930 N   0  0  0  0  0  0  0  0  0  0  0  0
   -2.1551   -1.5767   -0.5404 C   0  0  0  0  0  0  0  0  0  0  0  0
   -3.0236   -2.1722   -1.4653 C   0  0  0  0  0  0  0  0  0  0  0  0
   -2.5845   -3.2184   -2.2454 C   0  0  0  0  0  0  0  0  0  0  0  0
   -1.2731   -3.6628   -2.0872 C   0  0  0  0  0  0  0  0  0  0  0  0
   -0.4790   -3.0342   -1.1520 C   0  0  0  0  0  0  0  0  0  0  0  0
    0.5419   -3.3497   -0.9883 H   0  0  0  0  0  0  0  0  0  0  0  0
   -0.8865   -4.4790   -2.6757 H   0  0  0  0  0  0  0  0  0  0  0  0
   -4.0356   -1.8183   -1.5745 H   0  0  0  0  0  0  0  0  0  0  0  0
   -2.5447   -0.4564    0.3041 C   0  0  0  0  0  0  0  0  0  0  0  0
   -1.6052    0.0132    1.1543 N   0  0  0  0  0  0  0  0  0  0  0  0
   -1.9213    1.0281    1.9561 C   0  0  0  0  0  0  0  0  0  0  0  0
   -3.1583    1.6383    1.9628 C   0  0  0  0  0  0  0  0  0  0  0  0
   -4.1323    1.1778    1.0793 C   0  0  0  0  0  0  0  0  0  0  0  0
   -3.8173    0.1265    0.2468 C   0  0  0  0  0  0  0  0  0  0  0  0
   -4.5571   -0.2414   -0.4447 H   0  0  0  0  0  0  0  0  0  0  0  0
   -3.3613    2.4508    2.6415 H   0  0  0  0  0  0  0  0  0  0  0  0
   -1.1301    1.3587    2.6111 H   0  0  0  0  0  0  0  0  0  0  0  0
    0.4215   -0.8165    0.9133 Ir  0  0  0  0  0  0  0  0  0  0  0  0
    0.8726   -2.2303    1.5405 H   0  0  0  0  0  0  0  0  0  0  0  0
    0.3885    0.6411   -0.5830 B   0  0  0  0  0  0  0  0  0  0  0  0
   -0.2938    0.3866   -1.7617 O   0  0  0  0  0  0  0  0  0  0  0  0
   -0.4000    1.5862   -2.5346 C   0  0  0  0  0  0  0  0  0  0  0  0
   -0.2143    1.2660   -4.0156 C   0  0  0  0  0  0  0  0  0  0  0  0
    0.6911    0.6895   -4.1735 H   0  0  0  0  0  0  0  0  0  0  0  0
   -0.1685    2.1855   -4.5936 H   0  0  0  0  0  0  0  0  0  0  0  0
   -1.0586    0.6749   -4.3625 H   0  0  0  0  0  0  0  0  0  0  0  0
   -1.8143    2.1410   -2.3095 C   0  0  0  0  0  0  0  0  0  0  0  0
   -1.9874    3.0317   -2.9063 H   0  0  0  0  0  0  0  0  0  0  0  0
   -2.5367    1.3776   -2.5928 H   0  0  0  0  0  0  0  0  0  0  0  0
   -1.9625    2.3693   -1.2558 H   0  0  0  0  0  0  0  0  0  0  0  0
    0.7095    2.4919   -1.9084 C   0  0  0  0  0  0  0  0  0  0  0  0
    0.8569    1.9360   -0.5952 O   0  0  0  0  0  0  0  0  0  0  0  0
    2.0639    2.3294   -2.6096 C   0  0  0  0  0  0  0  0  0  0  0  0
    2.3396    1.2775   -2.6106 H   0  0  0  0  0  0  0  0  0  0  0  0
    2.0375    2.7202   -3.6228 H   0  0  0  0  0  0  0  0  0  0  0  0
    2.8171    2.8686   -2.0397 H   0  0  0  0  0  0  0  0  0  0  0  0
    0.3566    3.9749   -1.8140 C   0  0  0  0  0  0  0  0  0  0  0  0
   -0.4950    4.1361   -1.1603 H   0  0  0  0  0  0  0  0  0  0  0  0
    1.2055    4.5176   -1.4051 H   0  0  0  0  0  0  0  0  0  0  0  0
    0.1339    4.3676   -2.8030 H   0  0  0  0  0  0  0  0  0  0  0  0
    1.5523    0.6475    1.8830 B   0  0  0  0  0  0  0  0  0  0  0  0
    2.9211    0.7889    1.9057 O   0  0  0  0  0  0  0  0  0  0  0  0
    3.2760    2.0608    2.4665 C   0  0  0  0  0  0  0  0  0  0  0  0
    4.5222    1.9158    3.3387 C   0  0  0  0  0  0  0  0  0  0  0  0
    4.3964    1.1262    4.0721 H   0  0  0  0  0  0  0  0  0  0  0  0
    5.3708    1.6607    2.7092 H   0  0  0  0  0  0  0  0  0  0  0  0
    4.7328    2.8536    3.8457 H   0  0  0  0  0  0  0  0  0  0  0  0
    3.5816    2.9887    1.2844 C   0  0  0  0  0  0  0  0  0  0  0  0
    3.8458    3.9879    1.6179 H   0  0  0  0  0  0  0  0  0  0  0  0
    4.4136    2.5713    0.7218 H   0  0  0  0  0  0  0  0  0  0  0  0
    2.7159    3.0185    0.6277 H   0  0  0  0  0  0  0  0  0  0  0  0
    1.9758    2.4711    3.2376 C   0  0  0  0  0  0  0  0  0  0  0  0
    0.9712    1.6617    2.6133 O   0  0  0  0  0  0  0  0  0  0  0  0
    1.5899    3.9438    3.1100 C   0  0  0  0  0  0  0  0  0  0  0  0
    1.3736    4.1943    2.0770 H   0  0  0  0  0  0  0  0  0  0  0  0
    0.6958    4.1293    3.7004 H   0  0  0  0  0  0  0  0  0  0  0  0
    2.3920    4.5759    3.4815 H   0  0  0  0  0  0  0  0  0  0  0  0
    2.0097    2.0852    4.7222 C   0  0  0  0  0  0  0  0  0  0  0  0
    2.2360    1.0278    4.8252 H   0  0  0  0  0  0  0  0  0  0  0  0
    2.7400    2.6783    5.2642 H   0  0  0  0  0  0  0  0  0  0  0  0
    1.0249    2.2586    5.1497 H   0  0  0  0  0  0  0  0  0  0  0  0
    2.2782   -1.3309    0.1741 B   0  0  0  0  0  0  0  0  0  0  0  0
    3.1213   -2.2872    0.7009 O   0  0  0  0  0  0  0  0  0  0  0  0
    4.4039   -2.2286    0.0652 C   0  0  0  0  0  0  0  0  0  0  0  0
    5.3372   -1.4976    1.0366 C   0  0  0  0  0  0  0  0  0  0  0  0
    4.8991   -0.5358    1.2876 H   0  0  0  0  0  0  0  0  0  0  0  0
    5.4075   -2.0822    1.9505 H   0  0  0  0  0  0  0  0  0  0  0  0
    6.3313   -1.3721    0.6187 H   0  0  0  0  0  0  0  0  0  0  0  0
    4.9238   -3.6479   -0.1646 C   0  0  0  0  0  0  0  0  0  0  0  0
    5.0704   -4.1267    0.8000 H   0  0  0  0  0  0  0  0  0  0  0  0
    5.8734   -3.6175   -0.6916 H   0  0  0  0  0  0  0  0  0  0  0  0
    4.2142   -4.2428   -0.7299 H   0  0  0  0  0  0  0  0  0  0  0  0
    4.1096   -1.4089   -1.2413 C   0  0  0  0  0  0  0  0  0  0  0  0
    2.8491   -0.7864   -0.9538 O   0  0  0  0  0  0  0  0  0  0  0  0
    5.1378   -0.3247   -1.5613 C   0  0  0  0  0  0  0  0  0  0  0  0
    6.1242   -0.7627   -1.6869 H   0  0  0  0  0  0  0  0  0  0  0  0
    4.8536    0.1731   -2.4850 H   0  0  0  0  0  0  0  0  0  0  0  0
    5.1606    0.4175   -0.7710 H   0  0  0  0  0  0  0  0  0  0  0  0
    3.9100   -2.2904   -2.4818 C   0  0  0  0  0  0  0  0  0  0  0  0
    3.1459   -3.0394   -2.2929 H   0  0  0  0  0  0  0  0  0  0  0  0
    3.5682   -1.6633   -3.3017 H   0  0  0  0  0  0  0  0  0  0  0  0
    4.8378   -2.7747   -2.7707 H   0  0  0  0  0  0  0  0  0  0  0  0
   -3.2429   -3.6827   -2.9639 H   0  0  0  0  0  0  0  0  0  0  0  0
   -5.1113    1.6317    1.0465 H   0  0  0  0  0  0  0  0  0  0  0  0
    0.2359   -1.6814    2.9603 C   0  0  0  0  0  0  0  0  0  0  0  0
   -1.0408   -2.0738    3.3482 C   0  0  0  0  0  0  0  0  0  0  0  0
    1.2003   -1.5392    3.9558 C   0  0  0  0  0  0  0  0  0  0  0  0
   -1.3661   -2.2248    4.6875 C   0  0  0  0  0  0  0  0  0  0  0  0
   -1.8059   -2.2724    2.6093 H   0  0  0  0  0  0  0  0  0  0  0  0
    0.8754   -1.6962    5.2909 C   0  0  0  0  0  0  0  0  0  0  0  0
    2.2161   -1.3094    3.6709 H   0  0  0  0  0  0  0  0  0  0  0  0
   -0.4177   -2.0309    5.6810 C   0  0  0  0  0  0  0  0  0  0  0  0
   -2.3743   -2.5106    4.9593 H   0  0  0  0  0  0  0  0  0  0  0  0
    1.6378   -1.5704    6.0483 H   0  0  0  0  0  0  0  0  0  0  0  0
   -0.7530   -2.2219    7.1312 C   0  0  0  0  0  0  0  0  0  0  0  0
   -0.3421   -3.1667    7.4881 H   0  0  0  0  0  0  0  0  0  0  0  0
   -1.8296   -2.2389    7.2821 H   0  0  0  0  0  0  0  0  0  0  0  0
   -0.3244   -1.4233    7.7335 H   0  0  0  0  0  0  0  0  0  0  0  0
  1  2  4  0  0  0  0
  2  3  4  0  0  0  0
  3  4  4  0  0  0  0
  4  5  4  0  0  0  0
  1  6  4  0  0  0  0
  5  6  4  0  0  0  0
  6  7  1  0  0  0  0
  5  8  1  0  0  0  0
  3  9  1  0  0  0  0
  2 10  1  0  0  0  0
 10 11  4  0  0  0  0
 11 12  4  0  0  0  0
 12 13  4  0  0  0  0
 13 14  4  0  0  0  0
 10 15  4  0  0  0  0
 14 15  4  0  0  0  0
 15 16  1  0  0  0  0
 13 17  1  0  0  0  0
 12 18  1  0  0  0  0
  1 19  1  0  0  0  0
 11 19  1  0  0  0  0
 19 20  1  0  0  0  0
 19 21  1  0  0  0  0
 21 22  1  0  0  0  0
 22 23  1  0  0  0  0
 23 24  1  0  0  0  0
 24 25  1  0  0  0  0
 24 26  1  0  0  0  0
 24 27  1  0  0  0  0
 23 28  1  0  0  0  0
 28 29  1  0  0  0  0
 28 30  1  0  0  0  0
 28 31  1  0  0  0  0
 23 32  1  0  0  0  0
 21 33  1  0  0  0  0
 32 33  1  0  0  0  0
 32 34  1  0  0  0  0
 34 35  1  0  0  0  0
 34 36  1  0  0  0  0
 34 37  1  0  0  0  0
 32 38  1  0  0  0  0
 38 39  1  0  0  0  0
 38 40  1  0  0  0  0
 38 41  1  0  0  0  0
 19 42  1  0  0  0  0
 42 43  1  0  0  0  0
 43 44  1  0  0  0  0
 44 45  1  0  0  0  0
 45 46  1  0  0  0  0
 45 47  1  0  0  0  0
 45 48  1  0  0  0  0
 44 49  1  0  0  0  0
 49 50  1  0  0  0  0
 49 51  1  0  0  0  0
 49 52  1  0  0  0  0
 44 53  1  0  0  0  0
 42 54  1  0  0  0  0
 53 54  1  0  0  0  0
 53 55  1  0  0  0  0
 55 56  1  0  0  0  0
 55 57  1  0  0  0  0
 55 58  1  0  0  0  0
 53 59  1  0  0  0  0
 59 60  1  0  0  0  0
 59 61  1  0  0  0  0
 59 62  1  0  0  0  0
 19 63  1  0  0  0  0
 63 64  1  0  0  0  0
 64 65  1  0  0  0  0
 65 66  1  0  0  0  0
 66 67  1  0  0  0  0
 66 68  1  0  0  0  0
 66 69  1  0  0  0  0
 65 70  1  0  0  0  0
 70 71  1  0  0  0  0
 70 72  1  0  0  0  0
 70 73  1  0  0  0  0
 65 74  1  0  0  0  0
 63 75  1  0  0  0  0
 74 75  1  0  0  0  0
 74 76  1  0  0  0  0
 76 77  1  0  0  0  0
 76 78  1  0  0  0  0
 76 79  1  0  0  0  0
 74 80  1  0  0  0  0
 80 81  1  0  0  0  0
 80 82  1  0  0  0  0
 80 83  1  0  0  0  0
  4 84  1  0  0  0  0
 14 85  1  0  0  0  0
 19 86  1  0  0  0  0
 20 86  1  0  0  0  0
 86 87  4  0  0  0  0
 86 88  4  0  0  0  0
 87 89  4  0  0  0  0
 87 90  1  0  0  0  0
 88 91  4  0  0  0  0
 88 92  1  0  0  0  0
 89 93  4  0  0  0  0
 91 93  4  0  0  0  0
 89 94  1  0  0  0  0
 91 95  1  0  0  0  0
 93 96  1  0  0  0  0
 96 97  1  0  0  0  0
 96 98  1  0  0  0  0
 96 99  1  0  0  0  0
M  END
