
  xtb     01142213113D
 xtb: 6.4.1 (1a32961)
111120  0     0  0            999 V2000
   -0.9653   -2.0640   -0.3025 N   0  0  0  0  0  0  0  0  0  0  0  0
   -2.2380   -1.6375   -0.3801 C   0  0  0  0  0  0  0  0  0  0  0  0
   -3.1437   -2.2355   -1.2650 C   0  0  0  0  0  0  0  0  0  0  0  0
   -2.7311   -3.2733   -2.0723 C   0  0  0  0  0  0  0  0  0  0  0  0
   -1.4102   -3.7028   -1.9812 C   0  0  0  0  0  0  0  0  0  0  0  0
   -0.5773   -3.0656   -1.0848 C   0  0  0  0  0  0  0  0  0  0  0  0
    0.4556   -3.3644   -0.9779 H   0  0  0  0  0  0  0  0  0  0  0  0
   -1.0432   -4.5111   -2.5924 H   0  0  0  0  0  0  0  0  0  0  0  0
   -4.1617   -1.8881   -1.3276 H   0  0  0  0  0  0  0  0  0  0  0  0
   -2.6051   -0.5225    0.4874 C   0  0  0  0  0  0  0  0  0  0  0  0
   -1.6158    0.0187    1.2239 N   0  0  0  0  0  0  0  0  0  0  0  0
   -1.9003    1.0375    2.0283 C   0  0  0  0  0  0  0  0  0  0  0  0
   -3.1649    1.5758    2.1578 C   0  0  0  0  0  0  0  0  0  0  0  0
   -4.1984    1.0286    1.4040 C   0  0  0  0  0  0  0  0  0  0  0  0
   -3.9108   -0.0230    0.5610 C   0  0  0  0  0  0  0  0  0  0  0  0
   -4.7006   -0.4607   -0.0261 H   0  0  0  0  0  0  0  0  0  0  0  0
   -3.3417    2.3944    2.8369 H   0  0  0  0  0  0  0  0  0  0  0  0
   -1.0640    1.4294    2.5863 H   0  0  0  0  0  0  0  0  0  0  0  0
    0.4215   -0.8165    0.9133 Ir  0  0  0  0  0  0  0  0  0  0  0  0
    0.8726   -2.2303    1.5405 H   0  0  0  0  0  0  0  0  0  0  0  0
    0.2368    0.6129   -0.6010 B   0  0  0  0  0  0  0  0  0  0  0  0
   -0.4905    0.3122   -1.7412 O   0  0  0  0  0  0  0  0  0  0  0  0
   -0.7603    1.5086   -2.4795 C   0  0  0  0  0  0  0  0  0  0  0  0
   -0.6519    1.2315   -3.9766 C   0  0  0  0  0  0  0  0  0  0  0  0
    0.2885    0.7444   -4.2114 H   0  0  0  0  0  0  0  0  0  0  0  0
   -0.7317    2.1611   -4.5347 H   0  0  0  0  0  0  0  0  0  0  0  0
   -1.4617    0.5709   -4.2771 H   0  0  0  0  0  0  0  0  0  0  0  0
   -2.1998    1.9292   -2.1479 C   0  0  0  0  0  0  0  0  0  0  0  0
   -2.4951    2.8045   -2.7191 H   0  0  0  0  0  0  0  0  0  0  0  0
   -2.8682    1.1051   -2.3902 H   0  0  0  0  0  0  0  0  0  0  0  0
   -2.2939    2.1373   -1.0838 H   0  0  0  0  0  0  0  0  0  0  0  0
    0.3019    2.5028   -1.9100 C   0  0  0  0  0  0  0  0  0  0  0  0
    0.5798    1.9474   -0.6179 O   0  0  0  0  0  0  0  0  0  0  0  0
    1.6163    2.4672   -2.6993 C   0  0  0  0  0  0  0  0  0  0  0  0
    1.9769    1.4423   -2.7453 H   0  0  0  0  0  0  0  0  0  0  0  0
    1.4886    2.8726   -3.6988 H   0  0  0  0  0  0  0  0  0  0  0  0
    2.3590    3.0574   -2.1679 H   0  0  0  0  0  0  0  0  0  0  0  0
   -0.1726    3.9478   -1.7695 C   0  0  0  0  0  0  0  0  0  0  0  0
   -0.9889    4.0268   -1.0581 H   0  0  0  0  0  0  0  0  0  0  0  0
    0.6507    4.5608   -1.4106 H   0  0  0  0  0  0  0  0  0  0  0  0
   -0.4961    4.3285   -2.7350 H   0  0  0  0  0  0  0  0  0  0  0  0
    1.5608    0.7246    1.7490 B   0  0  0  0  0  0  0  0  0  0  0  0
    2.8828    1.0417    1.5278 O   0  0  0  0  0  0  0  0  0  0  0  0
    3.2011    2.3126    2.1126 C   0  0  0  0  0  0  0  0  0  0  0  0
    4.5803    2.2453    2.7689 C   0  0  0  0  0  0  0  0  0  0  0  0
    4.6450    1.4167    3.4660 H   0  0  0  0  0  0  0  0  0  0  0  0
    5.3326    2.0981    1.9981 H   0  0  0  0  0  0  0  0  0  0  0  0
    4.7917    3.1759    3.2884 H   0  0  0  0  0  0  0  0  0  0  0  0
    3.2359    3.3277    0.9644 C   0  0  0  0  0  0  0  0  0  0  0  0
    3.4451    4.3310    1.3234 H   0  0  0  0  0  0  0  0  0  0  0  0
    4.0145    3.0311    0.2653 H   0  0  0  0  0  0  0  0  0  0  0  0
    2.2858    3.2983    0.4385 H   0  0  0  0  0  0  0  0  0  0  0  0
    2.0091    2.5471    3.1050 C   0  0  0  0  0  0  0  0  0  0  0  0
    1.0157    1.6255    2.6363 O   0  0  0  0  0  0  0  0  0  0  0  0
    1.4269    3.9600    3.0863 C   0  0  0  0  0  0  0  0  0  0  0  0
    1.0205    4.1946    2.1081 H   0  0  0  0  0  0  0  0  0  0  0  0
    0.6211    4.0199    3.8140 H   0  0  0  0  0  0  0  0  0  0  0  0
    2.1908    4.6863    3.3503 H   0  0  0  0  0  0  0  0  0  0  0  0
    2.3377    2.1624    4.5534 C   0  0  0  0  0  0  0  0  0  0  0  0
    2.7070    1.1427    4.5972 H   0  0  0  0  0  0  0  0  0  0  0  0
    3.0694    2.8419    4.9795 H   0  0  0  0  0  0  0  0  0  0  0  0
    1.4242    2.2116    5.1414 H   0  0  0  0  0  0  0  0  0  0  0  0
    2.2782   -1.3309    0.1741 B   0  0  0  0  0  0  0  0  0  0  0  0
    3.2286   -2.1765    0.7039 O   0  0  0  0  0  0  0  0  0  0  0  0
    4.4376   -2.1044   -0.0650 C   0  0  0  0  0  0  0  0  0  0  0  0
    5.3873   -1.1778    0.7010 C   0  0  0  0  0  0  0  0  0  0  0  0
    4.8959   -0.2211    0.8527 H   0  0  0  0  0  0  0  0  0  0  0  0
    5.5840   -1.6150    1.6764 H   0  0  0  0  0  0  0  0  0  0  0  0
    6.3272   -1.0479    0.1739 H   0  0  0  0  0  0  0  0  0  0  0  0
    5.0599   -3.4955   -0.1753 C   0  0  0  0  0  0  0  0  0  0  0  0
    5.3696   -3.8227    0.8136 H   0  0  0  0  0  0  0  0  0  0  0  0
    5.9312   -3.4629   -0.8236 H   0  0  0  0  0  0  0  0  0  0  0  0
    4.3480   -4.2171   -0.5614 H   0  0  0  0  0  0  0  0  0  0  0  0
    3.9491   -1.4870   -1.4209 C   0  0  0  0  0  0  0  0  0  0  0  0
    2.6994   -0.8825   -1.0593 O   0  0  0  0  0  0  0  0  0  0  0  0
    4.8687   -0.4203   -2.0123 C   0  0  0  0  0  0  0  0  0  0  0  0
    5.8605   -0.8282   -2.1871 H   0  0  0  0  0  0  0  0  0  0  0  0
    4.4559   -0.0824   -2.9595 H   0  0  0  0  0  0  0  0  0  0  0  0
    4.9315    0.4339   -1.3472 H   0  0  0  0  0  0  0  0  0  0  0  0
    3.6512   -2.5444   -2.4929 C   0  0  0  0  0  0  0  0  0  0  0  0
    2.9775   -3.2996   -2.0979 H   0  0  0  0  0  0  0  0  0  0  0  0
    3.1567   -2.0592   -3.3307 H   0  0  0  0  0  0  0  0  0  0  0  0
    4.5652   -3.0135   -2.8442 H   0  0  0  0  0  0  0  0  0  0  0  0
   -3.4188   -3.7393   -2.7616 H   0  0  0  0  0  0  0  0  0  0  0  0
   -5.2039    1.4150    1.4774 H   0  0  0  0  0  0  0  0  0  0  0  0
    0.2359   -1.6814    2.9603 C   0  0  0  0  0  0  0  0  0  0  0  0
   -1.0777   -1.9723    3.2968 C   0  0  0  0  0  0  0  0  0  0  0  0
    1.1915   -1.6505    3.9919 C   0  0  0  0  0  0  0  0  0  0  0  0
   -1.4899   -2.0660    4.6302 C   0  0  0  0  0  0  0  0  0  0  0  0
   -1.8328   -2.1543    2.5473 H   0  0  0  0  0  0  0  0  0  0  0  0
    2.6577   -1.6210    3.7056 C   0  0  0  0  0  0  0  0  0  0  0  0
    0.7717   -1.7218    5.3175 C   0  0  0  0  0  0  0  0  0  0  0  0
   -2.8649   -2.3660    4.9399 C   0  0  0  0  0  0  0  0  0  0  0  0
   -0.5548   -1.9002    5.6509 C   0  0  0  0  0  0  0  0  0  0  0  0
    2.9112   -0.7780    3.0714 H   0  0  0  0  0  0  0  0  0  0  0  0
    2.9330   -2.5099    3.1417 H   0  0  0  0  0  0  0  0  0  0  0  0
    3.2336   -1.5885    4.6274 H   0  0  0  0  0  0  0  0  0  0  0  0
    1.5064   -1.6575    6.1079 H   0  0  0  0  0  0  0  0  0  0  0  0
   -3.8380   -2.5151    4.0922 N   0  0  0  0  0  0  0  0  0  0  0  0
   -3.2241   -2.5386    6.2486 O   0  0  0  0  0  0  0  0  0  0  0  0
   -0.8668   -1.9514    6.6831 H   0  0  0  0  0  0  0  0  0  0  0  0
   -4.9435   -2.8143    4.8523 C   0  0  0  0  0  0  0  0  0  0  0  0
   -4.5505   -2.8281    6.2063 C   0  0  0  0  0  0  0  0  0  0  0  0
   -6.2616   -3.0837    4.5059 C   0  0  0  0  0  0  0  0  0  0  0  0
   -5.4299   -3.1046    7.2344 C   0  0  0  0  0  0  0  0  0  0  0  0
   -7.1420   -3.3600    5.5337 C   0  0  0  0  0  0  0  0  0  0  0  0
   -6.5717   -3.0785    3.4739 H   0  0  0  0  0  0  0  0  0  0  0  0
   -6.7380   -3.3709    6.8687 C   0  0  0  0  0  0  0  0  0  0  0  0
   -5.1069   -3.1138    8.2629 H   0  0  0  0  0  0  0  0  0  0  0  0
   -8.1736   -3.5759    5.3007 H   0  0  0  0  0  0  0  0  0  0  0  0
   -7.4626   -3.5940    7.6365 H   0  0  0  0  0  0  0  0  0  0  0  0
  1  2  4  0  0  0  0
  2  3  4  0  0  0  0
  3  4  4  0  0  0  0
  4  5  4  0  0  0  0
  1  6  4  0  0  0  0
  5  6  4  0  0  0  0
  6  7  1  0  0  0  0
  5  8  1  0  0  0  0
  3  9  1  0  0  0  0
  2 10  1  0  0  0  0
 10 11  4  0  0  0  0
 11 12  4  0  0  0  0
 12 13  4  0  0  0  0
 13 14  4  0  0  0  0
 10 15  4  0  0  0  0
 14 15  4  0  0  0  0
 15 16  1  0  0  0  0
 13 17  1  0  0  0  0
 12 18  1  0  0  0  0
  1 19  1  0  0  0  0
 11 19  1  0  0  0  0
 19 20  1  0  0  0  0
 19 21  1  0  0  0  0
 21 22  1  0  0  0  0
 22 23  1  0  0  0  0
 23 24  1  0  0  0  0
 24 25  1  0  0  0  0
 24 26  1  0  0  0  0
 24 27  1  0  0  0  0
 23 28  1  0  0  0  0
 28 29  1  0  0  0  0
 28 30  1  0  0  0  0
 28 31  1  0  0  0  0
 23 32  1  0  0  0  0
 21 33  1  0  0  0  0
 32 33  1  0  0  0  0
 32 34  1  0  0  0  0
 34 35  1  0  0  0  0
 34 36  1  0  0  0  0
 34 37  1  0  0  0  0
 32 38  1  0  0  0  0
 38 39  1  0  0  0  0
 38 40  1  0  0  0  0
 38 41  1  0  0  0  0
 19 42  1  0  0  0  0
 42 43  1  0  0  0  0
 43 44  1  0  0  0  0
 44 45  1  0  0  0  0
 45 46  1  0  0  0  0
 45 47  1  0  0  0  0
 45 48  1  0  0  0  0
 44 49  1  0  0  0  0
 49 50  1  0  0  0  0
 49 51  1  0  0  0  0
 49 52  1  0  0  0  0
 44 53  1  0  0  0  0
 42 54  1  0  0  0  0
 53 54  1  0  0  0  0
 53 55  1  0  0  0  0
 55 56  1  0  0  0  0
 55 57  1  0  0  0  0
 55 58  1  0  0  0  0
 53 59  1  0  0  0  0
 59 60  1  0  0  0  0
 59 61  1  0  0  0  0
 59 62  1  0  0  0  0
 19 63  1  0  0  0  0
 63 64  1  0  0  0  0
 64 65  1  0  0  0  0
 65 66  1  0  0  0  0
 66 67  1  0  0  0  0
 66 68  1  0  0  0  0
 66 69  1  0  0  0  0
 65 70  1  0  0  0  0
 70 71  1  0  0  0  0
 70 72  1  0  0  0  0
 70 73  1  0  0  0  0
 65 74  1  0  0  0  0
 63 75  1  0  0  0  0
 74 75  1  0  0  0  0
 74 76  1  0  0  0  0
 76 77  1  0  0  0  0
 76 78  1  0  0  0  0
 76 79  1  0  0  0  0
 74 80  1  0  0  0  0
 80 81  1  0  0  0  0
 80 82  1  0  0  0  0
 80 83  1  0  0  0  0
  4 84  1  0  0  0  0
 14 85  1  0  0  0  0
 19 86  1  0  0  0  0
 20 86  1  0  0  0  0
 86 87  4  0  0  0  0
 86 88  4  0  0  0  0
 87 89  4  0  0  0  0
 87 90  1  0  0  0  0
 88 91  1  0  0  0  0
 88 92  4  0  0  0  0
 89 93  1  0  0  0  0
 89 94  4  0  0  0  0
 92 94  4  0  0  0  0
 91 95  1  0  0  0  0
 91 96  1  0  0  0  0
 91 97  1  0  0  0  0
 92 98  1  0  0  0  0
 93 99  2  0  0  0  0
 93100  1  0  0  0  0
 94101  1  0  0  0  0
 99102  1  0  0  0  0
100103  1  0  0  0  0
102103  4  0  0  0  0
102104  4  0  0  0  0
103105  4  0  0  0  0
104106  4  0  0  0  0
104107  1  0  0  0  0
105108  4  0  0  0  0
106108  4  0  0  0  0
105109  1  0  0  0  0
106110  1  0  0  0  0
108111  1  0  0  0  0
M  END
