
  xtb     01142213143D
 xtb: 6.4.1 (1a32961)
105113  0     0  0            999 V2000
   -0.9102   -1.9903   -0.4100 N   0  0  0  0  0  0  0  0  0  0  0  0
   -2.1709   -1.5300   -0.5382 C   0  0  0  0  0  0  0  0  0  0  0  0
   -3.0398   -2.0709   -1.4957 C   0  0  0  0  0  0  0  0  0  0  0  0
   -2.6065   -3.0821   -2.3235 C   0  0  0  0  0  0  0  0  0  0  0  0
   -1.3000   -3.5463   -2.1803 C   0  0  0  0  0  0  0  0  0  0  0  0
   -0.5033   -2.9689   -1.2150 C   0  0  0  0  0  0  0  0  0  0  0  0
    0.5147   -3.2994   -1.0634 H   0  0  0  0  0  0  0  0  0  0  0  0
   -0.9187   -4.3372   -2.8057 H   0  0  0  0  0  0  0  0  0  0  0  0
   -4.0460   -1.6980   -1.5963 H   0  0  0  0  0  0  0  0  0  0  0  0
   -2.5548   -0.4493    0.3584 C   0  0  0  0  0  0  0  0  0  0  0  0
   -1.5967    0.0098    1.1935 N   0  0  0  0  0  0  0  0  0  0  0  0
   -1.9027    0.9951    2.0349 C   0  0  0  0  0  0  0  0  0  0  0  0
   -3.1496    1.5809    2.1026 C   0  0  0  0  0  0  0  0  0  0  0  0
   -4.1470    1.1241    1.2432 C   0  0  0  0  0  0  0  0  0  0  0  0
   -3.8414    0.1059    0.3675 C   0  0  0  0  0  0  0  0  0  0  0  0
   -4.6003   -0.2615   -0.3033 H   0  0  0  0  0  0  0  0  0  0  0  0
   -3.3428    2.3697    2.8115 H   0  0  0  0  0  0  0  0  0  0  0  0
   -1.0949    1.3213    2.6717 H   0  0  0  0  0  0  0  0  0  0  0  0
    0.4215   -0.8165    0.9133 Ir  0  0  0  0  0  0  0  0  0  0  0  0
    0.8726   -2.2303    1.5405 H   0  0  0  0  0  0  0  0  0  0  0  0
    0.3734    0.6811   -0.5449 B   0  0  0  0  0  0  0  0  0  0  0  0
   -0.3578    0.4918   -1.7077 O   0  0  0  0  0  0  0  0  0  0  0  0
   -0.5006    1.7341   -2.4036 C   0  0  0  0  0  0  0  0  0  0  0  0
   -0.3843    1.5032   -3.9082 C   0  0  0  0  0  0  0  0  0  0  0  0
    0.5152    0.9443   -4.1442 H   0  0  0  0  0  0  0  0  0  0  0  0
   -0.3715    2.4557   -4.4321 H   0  0  0  0  0  0  0  0  0  0  0  0
   -1.2415    0.9268   -4.2484 H   0  0  0  0  0  0  0  0  0  0  0  0
   -1.9043    2.2685   -2.0818 C   0  0  0  0  0  0  0  0  0  0  0  0
   -2.1062    3.1927   -2.6154 H   0  0  0  0  0  0  0  0  0  0  0  0
   -2.6376    1.5204   -2.3773 H   0  0  0  0  0  0  0  0  0  0  0  0
   -2.0045    2.4327   -1.0107 H   0  0  0  0  0  0  0  0  0  0  0  0
    0.6350    2.6071   -1.7768 C   0  0  0  0  0  0  0  0  0  0  0  0
    0.8486    1.9728   -0.5097 O   0  0  0  0  0  0  0  0  0  0  0  0
    1.9538    2.5005   -2.5523 C   0  0  0  0  0  0  0  0  0  0  0  0
    2.2347    1.4534   -2.6361 H   0  0  0  0  0  0  0  0  0  0  0  0
    1.8744    2.9554   -3.5356 H   0  0  0  0  0  0  0  0  0  0  0  0
    2.7319    3.0079   -1.9868 H   0  0  0  0  0  0  0  0  0  0  0  0
    0.2796    4.0786   -1.5715 C   0  0  0  0  0  0  0  0  0  0  0  0
   -0.5359    4.1903   -0.8637 H   0  0  0  0  0  0  0  0  0  0  0  0
    1.1461    4.6026   -1.1753 H   0  0  0  0  0  0  0  0  0  0  0  0
    0.0014    4.5302   -2.5204 H   0  0  0  0  0  0  0  0  0  0  0  0
    1.5681    0.6279    1.8934 B   0  0  0  0  0  0  0  0  0  0  0  0
    2.9364    0.7511    1.9150 O   0  0  0  0  0  0  0  0  0  0  0  0
    3.3137    1.9986    2.5137 C   0  0  0  0  0  0  0  0  0  0  0  0
    4.5383    1.7946    3.4044 C   0  0  0  0  0  0  0  0  0  0  0  0
    4.3678    1.0010    4.1243 H   0  0  0  0  0  0  0  0  0  0  0  0
    5.3866    1.5140    2.7852 H   0  0  0  0  0  0  0  0  0  0  0  0
    4.7771    2.7165    3.9278 H   0  0  0  0  0  0  0  0  0  0  0  0
    3.6678    2.9433    1.3583 C   0  0  0  0  0  0  0  0  0  0  0  0
    3.9466    3.9294    1.7177 H   0  0  0  0  0  0  0  0  0  0  0  0
    4.5034    2.5183    0.8067 H   0  0  0  0  0  0  0  0  0  0  0  0
    2.8189    3.0063    0.6824 H   0  0  0  0  0  0  0  0  0  0  0  0
    2.0115    2.4269    3.2740 C   0  0  0  0  0  0  0  0  0  0  0  0
    0.9985    1.6359    2.6396 O   0  0  0  0  0  0  0  0  0  0  0  0
    1.6486    3.9056    3.1395 C   0  0  0  0  0  0  0  0  0  0  0  0
    1.4501    4.1567    2.1028 H   0  0  0  0  0  0  0  0  0  0  0  0
    0.7490    4.1048    3.7167 H   0  0  0  0  0  0  0  0  0  0  0  0
    2.4542    4.5267    3.5216 H   0  0  0  0  0  0  0  0  0  0  0  0
    2.0228    2.0454    4.7600 C   0  0  0  0  0  0  0  0  0  0  0  0
    2.2119    0.9819    4.8774 H   0  0  0  0  0  0  0  0  0  0  0  0
    2.7688    2.6160    5.3044 H   0  0  0  0  0  0  0  0  0  0  0  0
    1.0422    2.2567    5.1806 H   0  0  0  0  0  0  0  0  0  0  0  0
    2.2782   -1.3309    0.1741 B   0  0  0  0  0  0  0  0  0  0  0  0
    3.1341   -2.2913    0.6692 O   0  0  0  0  0  0  0  0  0  0  0  0
    4.4037   -2.2171    0.0087 C   0  0  0  0  0  0  0  0  0  0  0  0
    5.3525   -1.4916    0.9687 C   0  0  0  0  0  0  0  0  0  0  0  0
    4.9161   -0.5333    1.2355 H   0  0  0  0  0  0  0  0  0  0  0  0
    5.4404   -2.0824    1.8771 H   0  0  0  0  0  0  0  0  0  0  0  0
    6.3383   -1.3596    0.5334 H   0  0  0  0  0  0  0  0  0  0  0  0
    4.9274   -3.6298   -0.2506 C   0  0  0  0  0  0  0  0  0  0  0  0
    5.1035   -4.1181    0.7042 H   0  0  0  0  0  0  0  0  0  0  0  0
    5.8622   -3.5857   -0.8026 H   0  0  0  0  0  0  0  0  0  0  0  0
    4.2072   -4.2234   -0.8037 H   0  0  0  0  0  0  0  0  0  0  0  0
    4.0791   -1.3833   -1.2815 C   0  0  0  0  0  0  0  0  0  0  0  0
    2.8253   -0.7667   -0.9577 O   0  0  0  0  0  0  0  0  0  0  0  0
    5.0974   -0.2937   -1.6146 C   0  0  0  0  0  0  0  0  0  0  0  0
    6.0816   -0.7275   -1.7683 H   0  0  0  0  0  0  0  0  0  0  0  0
    4.7892    0.2126   -2.5260 H   0  0  0  0  0  0  0  0  0  0  0  0
    5.1372    0.4409   -0.8178 H   0  0  0  0  0  0  0  0  0  0  0  0
    3.8510   -2.2512   -2.5271 C   0  0  0  0  0  0  0  0  0  0  0  0
    3.0964   -3.0066   -2.3264 H   0  0  0  0  0  0  0  0  0  0  0  0
    3.4833   -1.6157   -3.3291 H   0  0  0  0  0  0  0  0  0  0  0  0
    4.7732   -2.7268   -2.8468 H   0  0  0  0  0  0  0  0  0  0  0  0
   -3.2649   -3.5040   -3.0677 H   0  0  0  0  0  0  0  0  0  0  0  0
   -5.1365    1.5554    1.2625 H   0  0  0  0  0  0  0  0  0  0  0  0
    0.2359   -1.6814    2.9603 C   0  0  0  0  0  0  0  0  0  0  0  0
   -1.0408   -2.1104    3.3524 C   0  0  0  0  0  0  0  0  0  0  0  0
    1.2362   -1.5372    3.9102 C   0  0  0  0  0  0  0  0  0  0  0  0
   -1.3965   -2.3238    4.6754 C   0  0  0  0  0  0  0  0  0  0  0  0
   -1.7930   -2.3005    2.5983 H   0  0  0  0  0  0  0  0  0  0  0  0
    0.9119   -1.7323    5.2476 C   0  0  0  0  0  0  0  0  0  0  0  0
    2.2456   -1.2970    3.6198 H   0  0  0  0  0  0  0  0  0  0  0  0
   -0.3967   -2.1144    5.6180 C   0  0  0  0  0  0  0  0  0  0  0  0
   -2.7688   -2.7797    5.0793 C   0  0  0  0  0  0  0  0  0  0  0  0
    1.6967   -1.6470    6.3772 N   0  0  0  0  0  0  0  0  0  0  0  0
   -0.3563   -2.2493    6.9870 N   0  0  0  0  0  0  0  0  0  0  0  0
   -3.3841   -2.9557    4.2008 H   0  0  0  0  0  0  0  0  0  0  0  0
   -3.2567   -2.0253    5.6971 H   0  0  0  0  0  0  0  0  0  0  0  0
   -2.7119   -3.7049    5.6527 H   0  0  0  0  0  0  0  0  0  0  0  0
    0.9223   -1.9572    7.3767 C   0  0  0  0  0  0  0  0  0  0  0  0
   -1.1182   -2.5152    7.5869 H   0  0  0  0  0  0  0  0  0  0  0  0
    1.3434   -2.0077    8.7985 C   0  0  0  0  0  0  0  0  0  0  0  0
    2.3945   -1.7457    8.8624 H   0  0  0  0  0  0  0  0  0  0  0  0
    1.1980   -3.0092    9.2010 H   0  0  0  0  0  0  0  0  0  0  0  0
    0.7610   -1.3066    9.3944 H   0  0  0  0  0  0  0  0  0  0  0  0
  1  2  4  0  0  0  0
  2  3  4  0  0  0  0
  3  4  4  0  0  0  0
  4  5  4  0  0  0  0
  1  6  4  0  0  0  0
  5  6  4  0  0  0  0
  6  7  1  0  0  0  0
  5  8  1  0  0  0  0
  3  9  1  0  0  0  0
  2 10  1  0  0  0  0
 10 11  4  0  0  0  0
 11 12  4  0  0  0  0
 12 13  4  0  0  0  0
 13 14  4  0  0  0  0
 10 15  4  0  0  0  0
 14 15  4  0  0  0  0
 15 16  1  0  0  0  0
 13 17  1  0  0  0  0
 12 18  1  0  0  0  0
  1 19  1  0  0  0  0
 11 19  1  0  0  0  0
 19 20  1  0  0  0  0
 19 21  1  0  0  0  0
 21 22  1  0  0  0  0
 22 23  1  0  0  0  0
 23 24  1  0  0  0  0
 24 25  1  0  0  0  0
 24 26  1  0  0  0  0
 24 27  1  0  0  0  0
 23 28  1  0  0  0  0
 28 29  1  0  0  0  0
 28 30  1  0  0  0  0
 28 31  1  0  0  0  0
 23 32  1  0  0  0  0
 21 33  1  0  0  0  0
 32 33  1  0  0  0  0
 32 34  1  0  0  0  0
 34 35  1  0  0  0  0
 34 36  1  0  0  0  0
 34 37  1  0  0  0  0
 32 38  1  0  0  0  0
 38 39  1  0  0  0  0
 38 40  1  0  0  0  0
 38 41  1  0  0  0  0
 19 42  1  0  0  0  0
 42 43  1  0  0  0  0
 43 44  1  0  0  0  0
 44 45  1  0  0  0  0
 45 46  1  0  0  0  0
 45 47  1  0  0  0  0
 45 48  1  0  0  0  0
 44 49  1  0  0  0  0
 49 50  1  0  0  0  0
 49 51  1  0  0  0  0
 49 52  1  0  0  0  0
 44 53  1  0  0  0  0
 42 54  1  0  0  0  0
 53 54  1  0  0  0  0
 53 55  1  0  0  0  0
 55 56  1  0  0  0  0
 55 57  1  0  0  0  0
 55 58  1  0  0  0  0
 53 59  1  0  0  0  0
 59 60  1  0  0  0  0
 59 61  1  0  0  0  0
 59 62  1  0  0  0  0
 19 63  1  0  0  0  0
 63 64  1  0  0  0  0
 64 65  1  0  0  0  0
 65 66  1  0  0  0  0
 66 67  1  0  0  0  0
 66 68  1  0  0  0  0
 66 69  1  0  0  0  0
 65 70  1  0  0  0  0
 70 71  1  0  0  0  0
 70 72  1  0  0  0  0
 70 73  1  0  0  0  0
 65 74  1  0  0  0  0
 63 75  1  0  0  0  0
 74 75  1  0  0  0  0
 74 76  1  0  0  0  0
 76 77  1  0  0  0  0
 76 78  1  0  0  0  0
 76 79  1  0  0  0  0
 74 80  1  0  0  0  0
 80 81  1  0  0  0  0
 80 82  1  0  0  0  0
 80 83  1  0  0  0  0
  4 84  1  0  0  0  0
 14 85  1  0  0  0  0
 19 86  1  0  0  0  0
 20 86  1  0  0  0  0
 86 87  4  0  0  0  0
 86 88  4  0  0  0  0
 87 89  4  0  0  0  0
 87 90  1  0  0  0  0
 88 91  4  0  0  0  0
 88 92  1  0  0  0  0
 89 93  4  0  0  0  0
 91 93  4  0  0  0  0
 89 94  1  0  0  0  0
 91 95  1  0  0  0  0
 93 96  1  0  0  0  0
 94 97  1  0  0  0  0
 94 98  1  0  0  0  0
 94 99  1  0  0  0  0
 95100  2  0  0  0  0
 96100  4  0  0  0  0
 96101  1  0  0  0  0
100102  1  0  0  0  0
102103  1  0  0  0  0
102104  1  0  0  0  0
102105  1  0  0  0  0
M  END
