   11
Created with kallisto
C      0.0797   -1.4491   -0.0038
C      0.8382   -0.2952    0.0038
C     -1.3189   -1.1772    0.0003
S     -0.1462    1.1050    0.0082
C      2.3241   -0.1774    0.0121
C     -1.5803    0.1746    0.0096
H     -2.0934   -1.9341   -0.0011
H      2.6621    0.8636   -0.0025
H      2.7477   -0.6808   -0.8634
H      2.7334   -0.6514    0.9105
H     -2.5446    0.6631    0.0170
