   11
Created with kallisto
C     -0.2552    0.8395    0.0147
C     -1.5601    0.3614    0.0129
C      0.7958   -0.0721    0.0041
C     -1.8285   -1.0046    0.0068
F     -2.5793    1.2304    0.0157
Cl     2.4199    0.4964    0.0017
C      0.5447   -1.4463   -0.0053
C     -0.7715   -1.9142   -0.0013
H     -2.8580   -1.3493    0.0079
H      1.3687   -2.1555   -0.0156
H     -0.9708   -2.9826   -0.0051
