   26
Created with kallisto
C     -1.2085   -0.0582   -0.4994
C     -0.5568   -1.2880   -0.4861
C     -0.5293    1.0859   -0.0678
C      0.7548   -1.3465   -0.0328
H     -1.0733   -2.1868   -0.8125
C     -1.3107    2.3731   -0.0204
N      0.7544    1.0417    0.3645
C      1.3582   -0.1688    0.3801
H      1.2847   -2.2923    0.0108
O     -2.5437    2.2559   -0.0163
N     -0.7266    3.6532   -0.0153
H      2.3806   -0.1746    0.7503
C      0.7014    3.9795    0.0431
C     -1.6442    4.7949   -0.0926
C      1.2963    4.2434   -1.3328
H      1.2719    3.2078    0.5537
H      0.8113    4.8796    0.6599
C     -2.0431    5.3129    1.2804
H     -2.5494    4.5069   -0.6404
H     -1.1747    5.5951   -0.6743
H      1.2983    3.3371   -1.9453
H      2.3284    4.5959   -1.2350
H      0.7340    5.0115   -1.8739
H     -2.5139    4.5285    1.8814
H     -2.7543    6.1390    1.1784
H     -1.1729    5.6820    1.8321
