
  xtb     01142213433D
 xtb: 6.4.1 (1a32961)
 96103  0     0  0            999 V2000
   -0.9249   -2.0093   -0.3725 N   0  0  0  0  0  0  0  0  0  0  0  0
   -2.1512   -1.4897   -0.5794 C   0  0  0  0  0  0  0  0  0  0  0  0
   -3.0107   -2.0361   -1.5407 C   0  0  0  0  0  0  0  0  0  0  0  0
   -2.6026   -3.1161   -2.2920 C   0  0  0  0  0  0  0  0  0  0  0  0
   -1.3319   -3.6416   -2.0678 C   0  0  0  0  0  0  0  0  0  0  0  0
   -0.5417   -3.0533   -1.1032 C   0  0  0  0  0  0  0  0  0  0  0  0
    0.4480   -3.4316   -0.8890 H   0  0  0  0  0  0  0  0  0  0  0  0
   -0.9721   -4.4879   -2.6302 H   0  0  0  0  0  0  0  0  0  0  0  0
   -3.9909   -1.6184   -1.7009 H   0  0  0  0  0  0  0  0  0  0  0  0
   -2.5107   -0.3462    0.2484 C   0  0  0  0  0  0  0  0  0  0  0  0
   -1.5724    0.0825    1.1211 N   0  0  0  0  0  0  0  0  0  0  0  0
   -1.8628    1.1132    1.9122 C   0  0  0  0  0  0  0  0  0  0  0  0
   -3.0696    1.7815    1.8829 C   0  0  0  0  0  0  0  0  0  0  0  0
   -4.0394    1.3646    0.9745 C   0  0  0  0  0  0  0  0  0  0  0  0
   -3.7525    0.2942    0.1551 C   0  0  0  0  0  0  0  0  0  0  0  0
   -4.4908   -0.0433   -0.5530 H   0  0  0  0  0  0  0  0  0  0  0  0
   -3.2513    2.6067    2.5524 H   0  0  0  0  0  0  0  0  0  0  0  0
   -1.0753    1.4125    2.5861 H   0  0  0  0  0  0  0  0  0  0  0  0
    0.4215   -0.8165    0.9133 Ir  0  0  0  0  0  0  0  0  0  0  0  0
    0.8726   -2.2303    1.5405 H   0  0  0  0  0  0  0  0  0  0  0  0
    0.4560    0.5627   -0.6518 B   0  0  0  0  0  0  0  0  0  0  0  0
   -0.1290    0.2229   -1.8586 O   0  0  0  0  0  0  0  0  0  0  0  0
   -0.1867    1.3643   -2.7189 C   0  0  0  0  0  0  0  0  0  0  0  0
    0.1546    0.9445   -4.1468 C   0  0  0  0  0  0  0  0  0  0  0  0
    1.0914    0.3979   -4.1714 H   0  0  0  0  0  0  0  0  0  0  0  0
    0.2221    1.8184   -4.7895 H   0  0  0  0  0  0  0  0  0  0  0  0
   -0.6293    0.2912   -4.5226 H   0  0  0  0  0  0  0  0  0  0  0  0
   -1.6308    1.8848   -2.6778 C   0  0  0  0  0  0  0  0  0  0  0  0
   -1.7618    2.7341   -3.3418 H   0  0  0  0  0  0  0  0  0  0  0  0
   -2.2973    1.0834   -2.9908 H   0  0  0  0  0  0  0  0  0  0  0  0
   -1.8978    2.1672   -1.6614 H   0  0  0  0  0  0  0  0  0  0  0  0
    0.8342    2.3461   -2.0535 C   0  0  0  0  0  0  0  0  0  0  0  0
    0.8965    1.8652   -0.7038 O   0  0  0  0  0  0  0  0  0  0  0  0
    2.2458    2.2084   -2.6373 C   0  0  0  0  0  0  0  0  0  0  0  0
    2.5715    1.1763   -2.5341 H   0  0  0  0  0  0  0  0  0  0  0  0
    2.2788    2.5204   -3.6772 H   0  0  0  0  0  0  0  0  0  0  0  0
    2.9256    2.8305   -2.0597 H   0  0  0  0  0  0  0  0  0  0  0  0
    0.4184    3.8159   -2.0656 C   0  0  0  0  0  0  0  0  0  0  0  0
   -0.4970    3.9726   -1.5037 H   0  0  0  0  0  0  0  0  0  0  0  0
    1.2035    4.4113   -1.6056 H   0  0  0  0  0  0  0  0  0  0  0  0
    0.2781    4.1536   -3.0894 H   0  0  0  0  0  0  0  0  0  0  0  0
    1.5888    0.6388    1.8597 B   0  0  0  0  0  0  0  0  0  0  0  0
    2.9619    0.7127    1.9292 O   0  0  0  0  0  0  0  0  0  0  0  0
    3.3601    2.0115    2.3887 C   0  0  0  0  0  0  0  0  0  0  0  0
    4.5717    1.8890    3.3114 C   0  0  0  0  0  0  0  0  0  0  0  0
    4.3834    1.1841    4.1144 H   0  0  0  0  0  0  0  0  0  0  0  0
    5.4215    1.5283    2.7373 H   0  0  0  0  0  0  0  0  0  0  0  0
    4.8204    2.8603    3.7305 H   0  0  0  0  0  0  0  0  0  0  0  0
    3.7443    2.8141    1.1399 C   0  0  0  0  0  0  0  0  0  0  0  0
    4.0497    3.8254    1.3913 H   0  0  0  0  0  0  0  0  0  0  0  0
    4.5686    2.3083    0.6423 H   0  0  0  0  0  0  0  0  0  0  0  0
    2.8991    2.8253    0.4566 H   0  0  0  0  0  0  0  0  0  0  0  0
    2.0574    2.5488    3.0736 C   0  0  0  0  0  0  0  0  0  0  0  0
    1.0352    1.7297    2.4917 O   0  0  0  0  0  0  0  0  0  0  0  0
    1.7437    4.0173    2.7918 C   0  0  0  0  0  0  0  0  0  0  0  0
    1.5614    4.1697    1.7333 H   0  0  0  0  0  0  0  0  0  0  0  0
    0.8460    4.3006    3.3358 H   0  0  0  0  0  0  0  0  0  0  0  0
    2.5660    4.6477    3.1191 H   0  0  0  0  0  0  0  0  0  0  0  0
    2.0288    2.3068    4.5885 C   0  0  0  0  0  0  0  0  0  0  0  0
    2.1965    1.2545    4.8018 H   0  0  0  0  0  0  0  0  0  0  0  0
    2.7746    2.9121    5.0946 H   0  0  0  0  0  0  0  0  0  0  0  0
    1.0441    2.5717    4.9665 H   0  0  0  0  0  0  0  0  0  0  0  0
    2.2782   -1.3309    0.1741 B   0  0  0  0  0  0  0  0  0  0  0  0
    3.0449   -2.3771    0.6501 O   0  0  0  0  0  0  0  0  0  0  0  0
    4.3513   -2.3458    0.0633 C   0  0  0  0  0  0  0  0  0  0  0  0
    5.2804   -1.7126    1.1049 C   0  0  0  0  0  0  0  0  0  0  0  0
    4.8825   -0.7414    1.3855 H   0  0  0  0  0  0  0  0  0  0  0  0
    5.2819   -2.3421    1.9913 H   0  0  0  0  0  0  0  0  0  0  0  0
    6.2961   -1.6214    0.7325 H   0  0  0  0  0  0  0  0  0  0  0  0
    4.8149   -3.7720   -0.2312 C   0  0  0  0  0  0  0  0  0  0  0  0
    4.9084   -4.3097    0.7086 H   0  0  0  0  0  0  0  0  0  0  0  0
    5.7820   -3.7556   -0.7260 H   0  0  0  0  0  0  0  0  0  0  0  0
    4.0991   -4.3009   -0.8514 H   0  0  0  0  0  0  0  0  0  0  0  0
    4.1391   -1.4399   -1.1990 C   0  0  0  0  0  0  0  0  0  0  0  0
    2.9234   -0.7415   -0.8900 O   0  0  0  0  0  0  0  0  0  0  0  0
    5.2538   -0.4273   -1.4544 C   0  0  0  0  0  0  0  0  0  0  0  0
    6.2038   -0.9382   -1.5856 H   0  0  0  0  0  0  0  0  0  0  0  0
    5.0282    0.1335   -2.3579 H   0  0  0  0  0  0  0  0  0  0  0  0
    5.3236    0.2730   -0.6295 H   0  0  0  0  0  0  0  0  0  0  0  0
    3.8857   -2.2424   -2.4827 C   0  0  0  0  0  0  0  0  0  0  0  0
    3.0667   -2.9406   -2.3321 H   0  0  0  0  0  0  0  0  0  0  0  0
    3.5964   -1.5529   -3.2725 H   0  0  0  0  0  0  0  0  0  0  0  0
    4.7779   -2.7789   -2.7913 H   0  0  0  0  0  0  0  0  0  0  0  0
   -3.2546   -3.5446   -3.0379 H   0  0  0  0  0  0  0  0  0  0  0  0
   -4.9939    1.8651    0.9126 H   0  0  0  0  0  0  0  0  0  0  0  0
    0.2359   -1.6814    2.9603 C   0  0  0  0  0  0  0  0  0  0  0  0
   -0.9320   -2.1107    3.5304 C   0  0  0  0  0  0  0  0  0  0  0  0
    1.1317   -1.4766    4.0557 C   0  0  0  0  0  0  0  0  0  0  0  0
   -0.8206   -2.1345    4.8919 O   0  0  0  0  0  0  0  0  0  0  0  0
   -2.2345   -2.5525    2.9588 C   0  0  0  0  0  0  0  0  0  0  0  0
    0.4393   -1.7480    5.1893 C   0  0  0  0  0  0  0  0  0  0  0  0
    2.1547   -1.1732    3.9742 H   0  0  0  0  0  0  0  0  0  0  0  0
   -2.6161   -3.4015    3.5237 H   0  0  0  0  0  0  0  0  0  0  0  0
   -2.0980   -2.8395    1.9209 H   0  0  0  0  0  0  0  0  0  0  0  0
   -2.9754   -1.7532    3.0084 H   0  0  0  0  0  0  0  0  0  0  0  0
    0.6990   -1.7165    6.2294 H   0  0  0  0  0  0  0  0  0  0  0  0
  1  2  4  0  0  0  0
  2  3  4  0  0  0  0
  3  4  4  0  0  0  0
  4  5  4  0  0  0  0
  1  6  4  0  0  0  0
  5  6  4  0  0  0  0
  6  7  1  0  0  0  0
  5  8  1  0  0  0  0
  3  9  1  0  0  0  0
  2 10  1  0  0  0  0
 10 11  4  0  0  0  0
 11 12  4  0  0  0  0
 12 13  4  0  0  0  0
 13 14  4  0  0  0  0
 10 15  4  0  0  0  0
 14 15  4  0  0  0  0
 15 16  1  0  0  0  0
 13 17  1  0  0  0  0
 12 18  1  0  0  0  0
  1 19  1  0  0  0  0
 11 19  1  0  0  0  0
 19 20  1  0  0  0  0
 19 21  1  0  0  0  0
 21 22  1  0  0  0  0
 22 23  1  0  0  0  0
 23 24  1  0  0  0  0
 24 25  1  0  0  0  0
 24 26  1  0  0  0  0
 24 27  1  0  0  0  0
 23 28  1  0  0  0  0
 28 29  1  0  0  0  0
 28 30  1  0  0  0  0
 28 31  1  0  0  0  0
 23 32  1  0  0  0  0
 21 33  1  0  0  0  0
 32 33  1  0  0  0  0
 32 34  1  0  0  0  0
 34 35  1  0  0  0  0
 34 36  1  0  0  0  0
 34 37  1  0  0  0  0
 32 38  1  0  0  0  0
 38 39  1  0  0  0  0
 38 40  1  0  0  0  0
 38 41  1  0  0  0  0
 19 42  1  0  0  0  0
 42 43  1  0  0  0  0
 43 44  1  0  0  0  0
 44 45  1  0  0  0  0
 45 46  1  0  0  0  0
 45 47  1  0  0  0  0
 45 48  1  0  0  0  0
 44 49  1  0  0  0  0
 49 50  1  0  0  0  0
 49 51  1  0  0  0  0
 49 52  1  0  0  0  0
 44 53  1  0  0  0  0
 42 54  1  0  0  0  0
 53 54  1  0  0  0  0
 53 55  1  0  0  0  0
 55 56  1  0  0  0  0
 55 57  1  0  0  0  0
 55 58  1  0  0  0  0
 53 59  1  0  0  0  0
 59 60  1  0  0  0  0
 59 61  1  0  0  0  0
 59 62  1  0  0  0  0
 19 63  1  0  0  0  0
 63 64  1  0  0  0  0
 64 65  1  0  0  0  0
 65 66  1  0  0  0  0
 66 67  1  0  0  0  0
 66 68  1  0  0  0  0
 66 69  1  0  0  0  0
 65 70  1  0  0  0  0
 70 71  1  0  0  0  0
 70 72  1  0  0  0  0
 70 73  1  0  0  0  0
 65 74  1  0  0  0  0
 63 75  1  0  0  0  0
 74 75  1  0  0  0  0
 74 76  1  0  0  0  0
 76 77  1  0  0  0  0
 76 78  1  0  0  0  0
 76 79  1  0  0  0  0
 74 80  1  0  0  0  0
 80 81  1  0  0  0  0
 80 82  1  0  0  0  0
 80 83  1  0  0  0  0
  4 84  1  0  0  0  0
 14 85  1  0  0  0  0
 19 86  1  0  0  0  0
 20 86  1  0  0  0  0
 86 87  2  0  0  0  0
 86 88  4  0  0  0  0
 87 89  1  0  0  0  0
 87 90  1  0  0  0  0
 88 91  2  0  0  0  0
 89 91  1  0  0  0  0
 88 92  1  0  0  0  0
 90 93  1  0  0  0  0
 90 94  1  0  0  0  0
 90 95  1  0  0  0  0
 91 96  1  0  0  0  0
M  END
