
  xtb     01142213333D
 xtb: 6.4.1 (1a32961)
103110  0     0  0            999 V2000
   -0.8133   -1.9390   -0.5239 N   0  0  0  0  0  0  0  0  0  0  0  0
   -2.0660   -1.4846   -0.6916 C   0  0  0  0  0  0  0  0  0  0  0  0
   -2.9413   -2.1017   -1.5936 C   0  0  0  0  0  0  0  0  0  0  0  0
   -2.5156   -3.1850   -2.3304 C   0  0  0  0  0  0  0  0  0  0  0  0
   -1.2112   -3.6355   -2.1558 C   0  0  0  0  0  0  0  0  0  0  0  0
   -0.4105   -2.9792   -1.2438 C   0  0  0  0  0  0  0  0  0  0  0  0
    0.6074   -3.2984   -1.0711 H   0  0  0  0  0  0  0  0  0  0  0  0
   -0.8346   -4.4820   -2.7066 H   0  0  0  0  0  0  0  0  0  0  0  0
   -3.9532   -1.7485   -1.7069 H   0  0  0  0  0  0  0  0  0  0  0  0
   -2.4612   -0.3385    0.1202 C   0  0  0  0  0  0  0  0  0  0  0  0
   -1.6033    0.0458    1.0877 N   0  0  0  0  0  0  0  0  0  0  0  0
   -1.9498    1.0543    1.8857 C   0  0  0  0  0  0  0  0  0  0  0  0
   -3.1347    1.7504    1.7647 C   0  0  0  0  0  0  0  0  0  0  0  0
   -4.0097    1.3966    0.7420 C   0  0  0  0  0  0  0  0  0  0  0  0
   -3.6665    0.3444   -0.0806 C   0  0  0  0  0  0  0  0  0  0  0  0
   -4.3262    0.0618   -0.8846 H   0  0  0  0  0  0  0  0  0  0  0  0
   -3.3672    2.5520    2.4465 H   0  0  0  0  0  0  0  0  0  0  0  0
   -1.2253    1.3115    2.6436 H   0  0  0  0  0  0  0  0  0  0  0  0
    0.4215   -0.8165    0.9133 Ir  0  0  0  0  0  0  0  0  0  0  0  0
    0.8726   -2.2303    1.5405 H   0  0  0  0  0  0  0  0  0  0  0  0
    0.5222    0.6864   -0.5383 B   0  0  0  0  0  0  0  0  0  0  0  0
   -0.2058    0.5633   -1.7052 O   0  0  0  0  0  0  0  0  0  0  0  0
   -0.1381    1.7820   -2.4573 C   0  0  0  0  0  0  0  0  0  0  0  0
    0.0013    1.4607   -3.9431 C   0  0  0  0  0  0  0  0  0  0  0  0
    0.8226    0.7726   -4.1125 H   0  0  0  0  0  0  0  0  0  0  0  0
    0.1656    2.3741   -4.5086 H   0  0  0  0  0  0  0  0  0  0  0  0
   -0.9141    0.9903   -4.2937 H   0  0  0  0  0  0  0  0  0  0  0  0
   -1.4591    2.5272   -2.2206 C   0  0  0  0  0  0  0  0  0  0  0  0
   -1.4990    3.4481   -2.7946 H   0  0  0  0  0  0  0  0  0  0  0  0
   -2.2812    1.8829   -2.5256 H   0  0  0  0  0  0  0  0  0  0  0  0
   -1.5788    2.7469   -1.1615 H   0  0  0  0  0  0  0  0  0  0  0  0
    1.0916    2.5086   -1.8188 C   0  0  0  0  0  0  0  0  0  0  0  0
    1.1762    1.8937   -0.5238 O   0  0  0  0  0  0  0  0  0  0  0  0
    2.4052    2.1886   -2.5415 C   0  0  0  0  0  0  0  0  0  0  0  0
    2.5402    1.1104   -2.5734 H   0  0  0  0  0  0  0  0  0  0  0  0
    2.4197    2.6071   -3.5434 H   0  0  0  0  0  0  0  0  0  0  0  0
    3.2286    2.6098   -1.9694 H   0  0  0  0  0  0  0  0  0  0  0  0
    0.9445    4.0214   -1.6694 C   0  0  0  0  0  0  0  0  0  0  0  0
    0.1250    4.2741   -1.0037 H   0  0  0  0  0  0  0  0  0  0  0  0
    1.8612    4.4281   -1.2490 H   0  0  0  0  0  0  0  0  0  0  0  0
    0.7756    4.4755   -2.6422 H   0  0  0  0  0  0  0  0  0  0  0  0
    1.5173    0.6290    1.9537 B   0  0  0  0  0  0  0  0  0  0  0  0
    2.8798    0.7176    2.0516 O   0  0  0  0  0  0  0  0  0  0  0  0
    3.2668    1.9614    2.6526 C   0  0  0  0  0  0  0  0  0  0  0  0
    4.3778    1.7062    3.6713 C   0  0  0  0  0  0  0  0  0  0  0  0
    4.0748    0.9734    4.4122 H   0  0  0  0  0  0  0  0  0  0  0  0
    5.2484    1.3158    3.1510 H   0  0  0  0  0  0  0  0  0  0  0  0
    4.6517    2.6322    4.1689 H   0  0  0  0  0  0  0  0  0  0  0  0
    3.8101    2.8394    1.5188 C   0  0  0  0  0  0  0  0  0  0  0  0
    4.0806    3.8289    1.8738 H   0  0  0  0  0  0  0  0  0  0  0  0
    4.6947    2.3609    1.1047 H   0  0  0  0  0  0  0  0  0  0  0  0
    3.0626    2.9044    0.7330 H   0  0  0  0  0  0  0  0  0  0  0  0
    1.9202    2.4951    3.2613 C   0  0  0  0  0  0  0  0  0  0  0  0
    0.9278    1.6686    2.6344 O   0  0  0  0  0  0  0  0  0  0  0  0
    1.6097    3.9572    2.9412 C   0  0  0  0  0  0  0  0  0  0  0  0
    1.5171    4.0981    1.8696 H   0  0  0  0  0  0  0  0  0  0  0  0
    0.6638    4.2276    3.4042 H   0  0  0  0  0  0  0  0  0  0  0  0
    2.3890    4.6040    3.3338 H   0  0  0  0  0  0  0  0  0  0  0  0
    1.8019    2.2787    4.7749 C   0  0  0  0  0  0  0  0  0  0  0  0
    1.9585    1.2327    5.0241 H   0  0  0  0  0  0  0  0  0  0  0  0
    2.5186    2.8908    5.3131 H   0  0  0  0  0  0  0  0  0  0  0  0
    0.7975    2.5523    5.0901 H   0  0  0  0  0  0  0  0  0  0  0  0
    2.2782   -1.3309    0.1741 B   0  0  0  0  0  0  0  0  0  0  0  0
    3.1693   -2.1404    0.8425 O   0  0  0  0  0  0  0  0  0  0  0  0
    4.4158   -2.2020    0.1367 C   0  0  0  0  0  0  0  0  0  0  0  0
    5.3798   -1.2603    0.8656 C   0  0  0  0  0  0  0  0  0  0  0  0
    4.9344   -0.2712    0.9188 H   0  0  0  0  0  0  0  0  0  0  0  0
    5.5086   -1.6207    1.8832 H   0  0  0  0  0  0  0  0  0  0  0  0
    6.3482   -1.2227    0.3765 H   0  0  0  0  0  0  0  0  0  0  0  0
    4.9612   -3.6287    0.1922 C   0  0  0  0  0  0  0  0  0  0  0  0
    5.1876   -3.8760    1.2259 H   0  0  0  0  0  0  0  0  0  0  0  0
    5.8712   -3.7043   -0.3961 H   0  0  0  0  0  0  0  0  0  0  0  0
    4.2326   -4.3457   -0.1713 H   0  0  0  0  0  0  0  0  0  0  0  0
    4.0244   -1.6945   -1.2955 C   0  0  0  0  0  0  0  0  0  0  0  0
    2.7789   -1.0107   -1.0651 O   0  0  0  0  0  0  0  0  0  0  0  0
    5.0230   -0.7266   -1.9265 C   0  0  0  0  0  0  0  0  0  0  0  0
    5.9994   -1.1960   -2.0066 H   0  0  0  0  0  0  0  0  0  0  0  0
    4.6803   -0.4591   -2.9228 H   0  0  0  0  0  0  0  0  0  0  0  0
    5.0990    0.1810   -1.3378 H   0  0  0  0  0  0  0  0  0  0  0  0
    3.7382   -2.8339   -2.2824 C   0  0  0  0  0  0  0  0  0  0  0  0
    3.0121   -3.5239   -1.8615 H   0  0  0  0  0  0  0  0  0  0  0  0
    3.3138   -2.4104   -3.1894 H   0  0  0  0  0  0  0  0  0  0  0  0
    4.6490   -3.3688   -2.5330 H   0  0  0  0  0  0  0  0  0  0  0  0
   -3.1832   -3.6743   -3.0233 H   0  0  0  0  0  0  0  0  0  0  0  0
   -4.9357    1.9309    0.5934 H   0  0  0  0  0  0  0  0  0  0  0  0
    0.2359   -1.6814    2.9603 C   0  0  0  0  0  0  0  0  0  0  0  0
   -1.0476   -1.9057    3.4841 C   0  0  0  0  0  0  0  0  0  0  0  0
    1.2899   -1.5516    3.8674 C   0  0  0  0  0  0  0  0  0  0  0  0
   -2.1947   -2.2756    2.6332 C   0  0  0  0  0  0  0  0  0  0  0  0
   -1.2713   -1.8515    4.8677 C   0  0  0  0  0  0  0  0  0  0  0  0
    1.0648   -1.5230    5.2398 C   0  0  0  0  0  0  0  0  0  0  0  0
    2.2968   -1.4629    3.4892 H   0  0  0  0  0  0  0  0  0  0  0  0
   -2.1461   -2.9796    1.6458 O   0  0  0  0  0  0  0  0  0  0  0  0
   -3.3597   -1.8133    3.1231 O   0  0  0  0  0  0  0  0  0  0  0  0
   -0.2368   -1.6473    5.7481 C   0  0  0  0  0  0  0  0  0  0  0  0
   -2.2751   -1.9903    5.2391 H   0  0  0  0  0  0  0  0  0  0  0  0
    2.1501   -1.3594    6.1266 C   0  0  0  0  0  0  0  0  0  0  0  0
   -4.5444   -2.2066    2.4395 C   0  0  0  0  0  0  0  0  0  0  0  0
   -0.4098   -1.6047    6.8123 H   0  0  0  0  0  0  0  0  0  0  0  0
    3.0263   -1.2173    6.8558 N   0  0  0  0  0  0  0  0  0  0  0  0
   -4.5624   -1.7721    1.4379 H   0  0  0  0  0  0  0  0  0  0  0  0
   -5.3699   -1.8281    3.0362 H   0  0  0  0  0  0  0  0  0  0  0  0
   -4.5888   -3.2942    2.3551 H   0  0  0  0  0  0  0  0  0  0  0  0
  1  2  4  0  0  0  0
  2  3  4  0  0  0  0
  3  4  4  0  0  0  0
  4  5  4  0  0  0  0
  1  6  4  0  0  0  0
  5  6  4  0  0  0  0
  6  7  1  0  0  0  0
  5  8  1  0  0  0  0
  3  9  1  0  0  0  0
  2 10  1  0  0  0  0
 10 11  4  0  0  0  0
 11 12  4  0  0  0  0
 12 13  4  0  0  0  0
 13 14  4  0  0  0  0
 10 15  4  0  0  0  0
 14 15  4  0  0  0  0
 15 16  1  0  0  0  0
 13 17  1  0  0  0  0
 12 18  1  0  0  0  0
  1 19  1  0  0  0  0
 11 19  1  0  0  0  0
 19 20  1  0  0  0  0
 19 21  1  0  0  0  0
 21 22  1  0  0  0  0
 22 23  1  0  0  0  0
 23 24  1  0  0  0  0
 24 25  1  0  0  0  0
 24 26  1  0  0  0  0
 24 27  1  0  0  0  0
 23 28  1  0  0  0  0
 28 29  1  0  0  0  0
 28 30  1  0  0  0  0
 28 31  1  0  0  0  0
 23 32  1  0  0  0  0
 21 33  1  0  0  0  0
 32 33  1  0  0  0  0
 32 34  1  0  0  0  0
 34 35  1  0  0  0  0
 34 36  1  0  0  0  0
 34 37  1  0  0  0  0
 32 38  1  0  0  0  0
 38 39  1  0  0  0  0
 38 40  1  0  0  0  0
 38 41  1  0  0  0  0
 19 42  1  0  0  0  0
 42 43  1  0  0  0  0
 43 44  1  0  0  0  0
 44 45  1  0  0  0  0
 45 46  1  0  0  0  0
 45 47  1  0  0  0  0
 45 48  1  0  0  0  0
 44 49  1  0  0  0  0
 49 50  1  0  0  0  0
 49 51  1  0  0  0  0
 49 52  1  0  0  0  0
 44 53  1  0  0  0  0
 42 54  1  0  0  0  0
 53 54  1  0  0  0  0
 53 55  1  0  0  0  0
 55 56  1  0  0  0  0
 55 57  1  0  0  0  0
 55 58  1  0  0  0  0
 53 59  1  0  0  0  0
 59 60  1  0  0  0  0
 59 61  1  0  0  0  0
 59 62  1  0  0  0  0
 19 63  1  0  0  0  0
 63 64  1  0  0  0  0
 64 65  1  0  0  0  0
 65 66  1  0  0  0  0
 66 67  1  0  0  0  0
 66 68  1  0  0  0  0
 66 69  1  0  0  0  0
 65 70  1  0  0  0  0
 70 71  1  0  0  0  0
 70 72  1  0  0  0  0
 70 73  1  0  0  0  0
 65 74  1  0  0  0  0
 63 75  1  0  0  0  0
 74 75  1  0  0  0  0
 74 76  1  0  0  0  0
 76 77  1  0  0  0  0
 76 78  1  0  0  0  0
 76 79  1  0  0  0  0
 74 80  1  0  0  0  0
 80 81  1  0  0  0  0
 80 82  1  0  0  0  0
 80 83  1  0  0  0  0
  4 84  1  0  0  0  0
 14 85  1  0  0  0  0
 19 86  1  0  0  0  0
 20 86  1  0  0  0  0
 86 87  4  0  0  0  0
 86 88  4  0  0  0  0
 87 89  1  0  0  0  0
 87 90  4  0  0  0  0
 88 91  4  0  0  0  0
 88 92  1  0  0  0  0
 89 93  2  0  0  0  0
 89 94  1  0  0  0  0
 90 95  4  0  0  0  0
 91 95  4  0  0  0  0
 90 96  1  0  0  0  0
 91 97  1  0  0  0  0
 94 98  1  0  0  0  0
 95 99  1  0  0  0  0
 97100  3  0  0  0  0
 98101  1  0  0  0  0
 98102  1  0  0  0  0
 98103  1  0  0  0  0
M  END
