
  xtb     01142215083D
 xtb: 6.4.1 (1a32961)
101108  0     0  0            999 V2000
   -0.9131   -1.9592   -0.4491 N   0  0  0  0  0  0  0  0  0  0  0  0
   -2.1313   -1.4163   -0.6390 C   0  0  0  0  0  0  0  0  0  0  0  0
   -2.9421   -1.8191   -1.7061 C   0  0  0  0  0  0  0  0  0  0  0  0
   -2.4999   -2.7954   -2.5725 C   0  0  0  0  0  0  0  0  0  0  0  0
   -1.2446   -3.3577   -2.3569 C   0  0  0  0  0  0  0  0  0  0  0  0
   -0.4969   -2.9018   -1.2914 C   0  0  0  0  0  0  0  0  0  0  0  0
    0.4842   -3.3062   -1.0871 H   0  0  0  0  0  0  0  0  0  0  0  0
   -0.8602   -4.1273   -3.0063 H   0  0  0  0  0  0  0  0  0  0  0  0
   -3.9047   -1.3624   -1.8665 H   0  0  0  0  0  0  0  0  0  0  0  0
   -2.5345   -0.3902    0.3160 C   0  0  0  0  0  0  0  0  0  0  0  0
   -1.5904    0.0297    1.1841 N   0  0  0  0  0  0  0  0  0  0  0  0
   -1.9139    0.9611    2.0773 C   0  0  0  0  0  0  0  0  0  0  0  0
   -3.1702    1.5263    2.1685 C   0  0  0  0  0  0  0  0  0  0  0  0
   -4.1556    1.1024    1.2813 C   0  0  0  0  0  0  0  0  0  0  0  0
   -3.8301    0.1385    0.3508 C   0  0  0  0  0  0  0  0  0  0  0  0
   -4.5824   -0.2121   -0.3359 H   0  0  0  0  0  0  0  0  0  0  0  0
   -3.3770    2.2740    2.9171 H   0  0  0  0  0  0  0  0  0  0  0  0
   -1.1157    1.2656    2.7364 H   0  0  0  0  0  0  0  0  0  0  0  0
    0.4215   -0.8165    0.9133 Ir  0  0  0  0  0  0  0  0  0  0  0  0
    0.8726   -2.2303    1.5405 H   0  0  0  0  0  0  0  0  0  0  0  0
    0.4545    0.6311   -0.5897 B   0  0  0  0  0  0  0  0  0  0  0  0
   -0.2723    0.4452   -1.7535 O   0  0  0  0  0  0  0  0  0  0  0  0
   -0.3276    1.6689   -2.4945 C   0  0  0  0  0  0  0  0  0  0  0  0
   -0.2076    1.3743   -3.9873 C   0  0  0  0  0  0  0  0  0  0  0  0
    0.6607    0.7564   -4.1902 H   0  0  0  0  0  0  0  0  0  0  0  0
   -0.1335    2.3035   -4.5463 H   0  0  0  0  0  0  0  0  0  0  0  0
   -1.0929    0.8352   -4.3161 H   0  0  0  0  0  0  0  0  0  0  0  0
   -1.6986    2.2998   -2.2105 C   0  0  0  0  0  0  0  0  0  0  0  0
   -1.8361    3.2156   -2.7777 H   0  0  0  0  0  0  0  0  0  0  0  0
   -2.4730    1.5886   -2.4911 H   0  0  0  0  0  0  0  0  0  0  0  0
   -1.8001    2.5066   -1.1470 H   0  0  0  0  0  0  0  0  0  0  0  0
    0.8539    2.4901   -1.8822 C   0  0  0  0  0  0  0  0  0  0  0  0
    1.0108    1.8881   -0.5903 O   0  0  0  0  0  0  0  0  0  0  0  0
    2.1720    2.2715   -2.6345 C   0  0  0  0  0  0  0  0  0  0  0  0
    2.3868    1.2064   -2.6740 H   0  0  0  0  0  0  0  0  0  0  0  0
    2.1332    2.6928   -3.6349 H   0  0  0  0  0  0  0  0  0  0  0  0
    2.9745    2.7501   -2.0781 H   0  0  0  0  0  0  0  0  0  0  0  0
    0.5910    3.9874   -1.7324 C   0  0  0  0  0  0  0  0  0  0  0  0
   -0.2199    4.1759   -1.0355 H   0  0  0  0  0  0  0  0  0  0  0  0
    1.4866    4.4704   -1.3486 H   0  0  0  0  0  0  0  0  0  0  0  0
    0.3473    4.4212   -2.6988 H   0  0  0  0  0  0  0  0  0  0  0  0
    1.5693    0.6371    1.8824 B   0  0  0  0  0  0  0  0  0  0  0  0
    2.9337    0.7347    1.9653 O   0  0  0  0  0  0  0  0  0  0  0  0
    3.3111    2.0104    2.5019 C   0  0  0  0  0  0  0  0  0  0  0  0
    4.4634    1.8304    3.4897 C   0  0  0  0  0  0  0  0  0  0  0  0
    4.2089    1.1159    4.2657 H   0  0  0  0  0  0  0  0  0  0  0  0
    5.3326    1.4530    2.9566 H   0  0  0  0  0  0  0  0  0  0  0  0
    4.7185    2.7836    3.9447 H   0  0  0  0  0  0  0  0  0  0  0  0
    3.7846    2.8546    1.3123 C   0  0  0  0  0  0  0  0  0  0  0  0
    4.0559    3.8606    1.6177 H   0  0  0  0  0  0  0  0  0  0  0  0
    4.6548    2.3736    0.8713 H   0  0  0  0  0  0  0  0  0  0  0  0
    2.9983    2.8791    0.5626 H   0  0  0  0  0  0  0  0  0  0  0  0
    1.9744    2.5360    3.1359 C   0  0  0  0  0  0  0  0  0  0  0  0
    0.9810    1.6941    2.5367 O   0  0  0  0  0  0  0  0  0  0  0  0
    1.6429    3.9927    2.8106 C   0  0  0  0  0  0  0  0  0  0  0  0
    1.5129    4.1211    1.7412 H   0  0  0  0  0  0  0  0  0  0  0  0
    0.7114    4.2628    3.3020 H   0  0  0  0  0  0  0  0  0  0  0  0
    2.4306    4.6490    3.1697 H   0  0  0  0  0  0  0  0  0  0  0  0
    1.8936    2.3327    4.6546 C   0  0  0  0  0  0  0  0  0  0  0  0
    2.0549    1.2897    4.9149 H   0  0  0  0  0  0  0  0  0  0  0  0
    2.6208    2.9526    5.1697 H   0  0  0  0  0  0  0  0  0  0  0  0
    0.8971    2.6094    4.9922 H   0  0  0  0  0  0  0  0  0  0  0  0
    2.2782   -1.3309    0.1741 B   0  0  0  0  0  0  0  0  0  0  0  0
    3.1102   -2.2860    0.7197 O   0  0  0  0  0  0  0  0  0  0  0  0
    4.3977   -2.2458    0.0923 C   0  0  0  0  0  0  0  0  0  0  0  0
    5.3295   -1.5014    1.0547 C   0  0  0  0  0  0  0  0  0  0  0  0
    4.8964   -0.5322    1.2844 H   0  0  0  0  0  0  0  0  0  0  0  0
    5.3895   -2.0662    1.9818 H   0  0  0  0  0  0  0  0  0  0  0  0
    6.3272   -1.3910    0.6413 H   0  0  0  0  0  0  0  0  0  0  0  0
    4.9115   -3.6718   -0.1072 C   0  0  0  0  0  0  0  0  0  0  0  0
    5.0516   -4.1311    0.8678 H   0  0  0  0  0  0  0  0  0  0  0  0
    5.8639   -3.6563   -0.6296 H   0  0  0  0  0  0  0  0  0  0  0  0
    4.2020   -4.2749   -0.6636 H   0  0  0  0  0  0  0  0  0  0  0  0
    4.1149   -1.4491   -1.2306 C   0  0  0  0  0  0  0  0  0  0  0  0
    2.8595   -0.8076   -0.9577 O   0  0  0  0  0  0  0  0  0  0  0  0
    5.1556   -0.3839   -1.5711 C   0  0  0  0  0  0  0  0  0  0  0  0
    6.1373   -0.8358   -1.6825 H   0  0  0  0  0  0  0  0  0  0  0  0
    4.8808    0.0959   -2.5071 H   0  0  0  0  0  0  0  0  0  0  0  0
    5.1847    0.3758   -0.7978 H   0  0  0  0  0  0  0  0  0  0  0  0
    3.9059   -2.3542   -2.4523 C   0  0  0  0  0  0  0  0  0  0  0  0
    3.1385   -3.0948   -2.2452 H   0  0  0  0  0  0  0  0  0  0  0  0
    3.5659   -1.7419   -3.2840 H   0  0  0  0  0  0  0  0  0  0  0  0
    4.8302   -2.8498   -2.7331 H   0  0  0  0  0  0  0  0  0  0  0  0
   -3.1138   -3.1141   -3.4011 H   0  0  0  0  0  0  0  0  0  0  0  0
   -5.1523    1.5146    1.3216 H   0  0  0  0  0  0  0  0  0  0  0  0
    0.2359   -1.6814    2.9603 C   0  0  0  0  0  0  0  0  0  0  0  0
   -0.9245   -2.1491    3.5409 C   0  0  0  0  0  0  0  0  0  0  0  0
    1.1071   -1.4280    4.0446 C   0  0  0  0  0  0  0  0  0  0  0  0
   -0.8303   -2.1490    4.8919 O   0  0  0  0  0  0  0  0  0  0  0  0
   -2.1940   -2.6506    2.9518 C   0  0  0  0  0  0  0  0  0  0  0  0
    0.4194   -1.7044    5.2083 C   0  0  0  0  0  0  0  0  0  0  0  0
    2.1220   -1.0946    3.9791 H   0  0  0  0  0  0  0  0  0  0  0  0
   -2.5159   -3.5482    3.4767 H   0  0  0  0  0  0  0  0  0  0  0  0
   -2.0417   -2.8740    1.9008 H   0  0  0  0  0  0  0  0  0  0  0  0
   -2.9839   -1.9048    3.0453 H   0  0  0  0  0  0  0  0  0  0  0  0
    0.8211   -1.5925    6.5931 C   0  0  0  0  0  0  0  0  0  0  0  0
    1.9284   -1.1802    6.9126 O   0  0  0  0  0  0  0  0  0  0  0  0
   -0.2155   -2.0094    7.6054 C   0  0  0  0  0  0  0  0  0  0  0  0
   -1.0957   -1.3792    7.4998 H   0  0  0  0  0  0  0  0  0  0  0  0
    0.1895   -1.9162    8.6090 H   0  0  0  0  0  0  0  0  0  0  0  0
   -0.5152   -3.0374    7.4162 H   0  0  0  0  0  0  0  0  0  0  0  0
  1  2  4  0  0  0  0
  2  3  4  0  0  0  0
  3  4  4  0  0  0  0
  4  5  4  0  0  0  0
  1  6  4  0  0  0  0
  5  6  4  0  0  0  0
  6  7  1  0  0  0  0
  5  8  1  0  0  0  0
  3  9  1  0  0  0  0
  2 10  1  0  0  0  0
 10 11  4  0  0  0  0
 11 12  4  0  0  0  0
 12 13  4  0  0  0  0
 13 14  4  0  0  0  0
 10 15  4  0  0  0  0
 14 15  4  0  0  0  0
 15 16  1  0  0  0  0
 13 17  1  0  0  0  0
 12 18  1  0  0  0  0
  1 19  1  0  0  0  0
 11 19  1  0  0  0  0
 19 20  1  0  0  0  0
 19 21  1  0  0  0  0
 21 22  1  0  0  0  0
 22 23  1  0  0  0  0
 23 24  1  0  0  0  0
 24 25  1  0  0  0  0
 24 26  1  0  0  0  0
 24 27  1  0  0  0  0
 23 28  1  0  0  0  0
 28 29  1  0  0  0  0
 28 30  1  0  0  0  0
 28 31  1  0  0  0  0
 23 32  1  0  0  0  0
 21 33  1  0  0  0  0
 32 33  1  0  0  0  0
 32 34  1  0  0  0  0
 34 35  1  0  0  0  0
 34 36  1  0  0  0  0
 34 37  1  0  0  0  0
 32 38  1  0  0  0  0
 38 39  1  0  0  0  0
 38 40  1  0  0  0  0
 38 41  1  0  0  0  0
 19 42  1  0  0  0  0
 42 43  1  0  0  0  0
 43 44  1  0  0  0  0
 44 45  1  0  0  0  0
 45 46  1  0  0  0  0
 45 47  1  0  0  0  0
 45 48  1  0  0  0  0
 44 49  1  0  0  0  0
 49 50  1  0  0  0  0
 49 51  1  0  0  0  0
 49 52  1  0  0  0  0
 44 53  1  0  0  0  0
 42 54  1  0  0  0  0
 53 54  1  0  0  0  0
 53 55  1  0  0  0  0
 55 56  1  0  0  0  0
 55 57  1  0  0  0  0
 55 58  1  0  0  0  0
 53 59  1  0  0  0  0
 59 60  1  0  0  0  0
 59 61  1  0  0  0  0
 59 62  1  0  0  0  0
 19 63  1  0  0  0  0
 63 64  1  0  0  0  0
 64 65  1  0  0  0  0
 65 66  1  0  0  0  0
 66 67  1  0  0  0  0
 66 68  1  0  0  0  0
 66 69  1  0  0  0  0
 65 70  1  0  0  0  0
 70 71  1  0  0  0  0
 70 72  1  0  0  0  0
 70 73  1  0  0  0  0
 65 74  1  0  0  0  0
 63 75  1  0  0  0  0
 74 75  1  0  0  0  0
 74 76  1  0  0  0  0
 76 77  1  0  0  0  0
 76 78  1  0  0  0  0
 76 79  1  0  0  0  0
 74 80  1  0  0  0  0
 80 81  1  0  0  0  0
 80 82  1  0  0  0  0
 80 83  1  0  0  0  0
  4 84  1  0  0  0  0
 14 85  1  0  0  0  0
 19 86  1  0  0  0  0
 20 86  1  0  0  0  0
 86 87  4  0  0  0  0
 86 88  4  0  0  0  0
 87 89  1  0  0  0  0
 87 90  1  0  0  0  0
 88 91  4  0  0  0  0
 89 91  1  0  0  0  0
 88 92  1  0  0  0  0
 90 93  1  0  0  0  0
 90 94  1  0  0  0  0
 90 95  1  0  0  0  0
 91 96  1  0  0  0  0
 96 97  2  0  0  0  0
 96 98  1  0  0  0  0
 98 99  1  0  0  0  0
 98100  1  0  0  0  0
 98101  1  0  0  0  0
M  END
