    8

C         -0.43292       -1.17292        0.00550
C         -1.16773       -0.01304        0.00169
C         -0.31627        1.13548       -0.00027
C          1.00873        0.76944        0.00252
Br         2.42303        1.99744        0.00267
S          1.24115       -0.91203        0.00613
Cl        -1.04681       -2.77624        0.00984
H         -2.24998        0.01812        0.00069
