
  xtb     01142215293D
 xtb: 6.4.1 (1a32961)
 97104  0     0  0            999 V2000
   -0.9637   -2.0092   -0.3511 N   0  0  0  0  0  0  0  0  0  0  0  0
   -2.1948   -1.4972   -0.5279 C   0  0  0  0  0  0  0  0  0  0  0  0
   -3.0831   -2.0632   -1.4507 C   0  0  0  0  0  0  0  0  0  0  0  0
   -2.6922   -3.1525   -2.1991 C   0  0  0  0  0  0  0  0  0  0  0  0
   -1.4120   -3.6655   -2.0114 C   0  0  0  0  0  0  0  0  0  0  0  0
   -0.5961   -3.0596   -1.0782 C   0  0  0  0  0  0  0  0  0  0  0  0
    0.4031   -3.4275   -0.8924 H   0  0  0  0  0  0  0  0  0  0  0  0
   -1.0632   -4.5154   -2.5747 H   0  0  0  0  0  0  0  0  0  0  0  0
   -4.0713   -1.6556   -1.5838 H   0  0  0  0  0  0  0  0  0  0  0  0
   -2.5328   -0.3293    0.2796 C   0  0  0  0  0  0  0  0  0  0  0  0
   -1.5803    0.1153    1.1251 N   0  0  0  0  0  0  0  0  0  0  0  0
   -1.8431    1.1775    1.8832 C   0  0  0  0  0  0  0  0  0  0  0  0
   -3.0416    1.8608    1.8474 C   0  0  0  0  0  0  0  0  0  0  0  0
   -4.0292    1.4234    0.9699 C   0  0  0  0  0  0  0  0  0  0  0  0
   -3.7680    0.3223    0.1824 C   0  0  0  0  0  0  0  0  0  0  0  0
   -4.5209   -0.0279   -0.5036 H   0  0  0  0  0  0  0  0  0  0  0  0
   -3.2032    2.7104    2.4905 H   0  0  0  0  0  0  0  0  0  0  0  0
   -1.0432    1.4831    2.5403 H   0  0  0  0  0  0  0  0  0  0  0  0
    0.4215   -0.8165    0.9133 Ir  0  0  0  0  0  0  0  0  0  0  0  0
    0.8726   -2.2303    1.5405 H   0  0  0  0  0  0  0  0  0  0  0  0
    0.3868    0.5934   -0.6177 B   0  0  0  0  0  0  0  0  0  0  0  0
   -0.1413    0.2652   -1.8493 O   0  0  0  0  0  0  0  0  0  0  0  0
   -0.2456    1.4380   -2.6661 C   0  0  0  0  0  0  0  0  0  0  0  0
    0.1626    1.1022   -4.0979 C   0  0  0  0  0  0  0  0  0  0  0  0
    1.1286    0.6089   -4.1139 H   0  0  0  0  0  0  0  0  0  0  0  0
    0.2028    2.0075   -4.6980 H   0  0  0  0  0  0  0  0  0  0  0  0
   -0.5717    0.4263   -4.5295 H   0  0  0  0  0  0  0  0  0  0  0  0
   -1.7183    1.8715   -2.6468 C   0  0  0  0  0  0  0  0  0  0  0  0
   -1.8815    2.7311   -3.2901 H   0  0  0  0  0  0  0  0  0  0  0  0
   -2.3297    1.0432   -2.9994 H   0  0  0  0  0  0  0  0  0  0  0  0
   -2.0267    2.1101   -1.6307 H   0  0  0  0  0  0  0  0  0  0  0  0
    0.6938    2.4490   -1.9302 C   0  0  0  0  0  0  0  0  0  0  0  0
    0.7231    1.9278   -0.5933 O   0  0  0  0  0  0  0  0  0  0  0  0
    2.1336    2.3942   -2.4547 C   0  0  0  0  0  0  0  0  0  0  0  0
    2.4984    1.3722   -2.3837 H   0  0  0  0  0  0  0  0  0  0  0  0
    2.1974    2.7550   -3.4770 H   0  0  0  0  0  0  0  0  0  0  0  0
    2.7609    3.0154   -1.8202 H   0  0  0  0  0  0  0  0  0  0  0  0
    0.2067    3.8961   -1.9184 C   0  0  0  0  0  0  0  0  0  0  0  0
   -0.7380    3.9918   -1.3921 H   0  0  0  0  0  0  0  0  0  0  0  0
    0.9420    4.5154   -1.4103 H   0  0  0  0  0  0  0  0  0  0  0  0
    0.0916    4.2562   -2.9374 H   0  0  0  0  0  0  0  0  0  0  0  0
    1.5995    0.6524    1.8347 B   0  0  0  0  0  0  0  0  0  0  0  0
    2.9022    1.0091    1.6072 O   0  0  0  0  0  0  0  0  0  0  0  0
    3.2337    2.2132    2.3153 C   0  0  0  0  0  0  0  0  0  0  0  0
    4.5847    2.0327    3.0098 C   0  0  0  0  0  0  0  0  0  0  0  0
    4.5876    1.1459    3.6353 H   0  0  0  0  0  0  0  0  0  0  0  0
    5.3580    1.9149    2.2547 H   0  0  0  0  0  0  0  0  0  0  0  0
    4.8169    2.9056    3.6130 H   0  0  0  0  0  0  0  0  0  0  0  0
    3.3530    3.3191    1.2609 C   0  0  0  0  0  0  0  0  0  0  0  0
    3.5633    4.2822    1.7158 H   0  0  0  0  0  0  0  0  0  0  0  0
    4.1646    3.0626    0.5837 H   0  0  0  0  0  0  0  0  0  0  0  0
    2.4347    3.3625    0.6821 H   0  0  0  0  0  0  0  0  0  0  0  0
    2.0157    2.4069    3.2918 C   0  0  0  0  0  0  0  0  0  0  0  0
    1.0521    1.4629    2.8028 O   0  0  0  0  0  0  0  0  0  0  0  0
    1.3859    3.8007    3.2588 C   0  0  0  0  0  0  0  0  0  0  0  0
    1.0086    4.0290    2.2673 H   0  0  0  0  0  0  0  0  0  0  0  0
    0.5512    3.8249    3.9553 H   0  0  0  0  0  0  0  0  0  0  0  0
    2.1113    4.5517    3.5581 H   0  0  0  0  0  0  0  0  0  0  0  0
    2.3196    2.0400    4.7495 C   0  0  0  0  0  0  0  0  0  0  0  0
    2.7155    1.0317    4.8175 H   0  0  0  0  0  0  0  0  0  0  0  0
    3.0243    2.7413    5.1853 H   0  0  0  0  0  0  0  0  0  0  0  0
    1.3913    2.0745    5.3153 H   0  0  0  0  0  0  0  0  0  0  0  0
    2.2782   -1.3309    0.1741 B   0  0  0  0  0  0  0  0  0  0  0  0
    3.1380   -2.2552    0.7292 O   0  0  0  0  0  0  0  0  0  0  0  0
    4.4031   -2.2246    0.0543 C   0  0  0  0  0  0  0  0  0  0  0  0
    5.3498   -1.4035    0.9365 C   0  0  0  0  0  0  0  0  0  0  0  0
    4.9197   -0.4185    1.0975 H   0  0  0  0  0  0  0  0  0  0  0  0
    5.4349   -1.8945    1.9034 H   0  0  0  0  0  0  0  0  0  0  0  0
    6.3371   -1.3218    0.4932 H   0  0  0  0  0  0  0  0  0  0  0  0
    4.9416   -3.6476   -0.0842 C   0  0  0  0  0  0  0  0  0  0  0  0
    5.1467   -4.0425    0.9074 H   0  0  0  0  0  0  0  0  0  0  0  0
    5.8631   -3.6430   -0.6594 H   0  0  0  0  0  0  0  0  0  0  0  0
    4.2183   -4.2993   -0.5628 H   0  0  0  0  0  0  0  0  0  0  0  0
    4.0530   -1.5088   -1.2962 C   0  0  0  0  0  0  0  0  0  0  0  0
    2.8163   -0.8430   -0.9930 O   0  0  0  0  0  0  0  0  0  0  0  0
    5.0807   -0.4781   -1.7589 C   0  0  0  0  0  0  0  0  0  0  0  0
    6.0562   -0.9431   -1.8709 H   0  0  0  0  0  0  0  0  0  0  0  0
    4.7730   -0.0730   -2.7197 H   0  0  0  0  0  0  0  0  0  0  0  0
    5.1421    0.3399   -1.0494 H   0  0  0  0  0  0  0  0  0  0  0  0
    3.7698   -2.4894   -2.4418 C   0  0  0  0  0  0  0  0  0  0  0  0
    3.0215   -3.2162   -2.1379 H   0  0  0  0  0  0  0  0  0  0  0  0
    3.3714   -1.9319   -3.2861 H   0  0  0  0  0  0  0  0  0  0  0  0
    4.6766   -3.0007   -2.7502 H   0  0  0  0  0  0  0  0  0  0  0  0
   -3.3664   -3.5955   -2.9161 H   0  0  0  0  0  0  0  0  0  0  0  0
   -4.9790    1.9320    0.9055 H   0  0  0  0  0  0  0  0  0  0  0  0
    0.2359   -1.6814    2.9603 C   0  0  0  0  0  0  0  0  0  0  0  0
   -1.0783   -1.9887    3.3002 C   0  0  0  0  0  0  0  0  0  0  0  0
    1.1518   -1.6224    4.0131 C   0  0  0  0  0  0  0  0  0  0  0  0
   -1.4821   -2.1043    4.6329 C   0  0  0  0  0  0  0  0  0  0  0  0
   -1.8207   -2.1461    2.5309 H   0  0  0  0  0  0  0  0  0  0  0  0
    0.7722   -1.7439    5.3436 C   0  0  0  0  0  0  0  0  0  0  0  0
    2.8239   -1.4162    3.6579 Cl  0  0  0  0  0  0  0  0  0  0  0  0
   -0.5521   -1.9642    5.6651 C   0  0  0  0  0  0  0  0  0  0  0  0
   -2.8367   -2.3704    4.9161 C   0  0  0  0  0  0  0  0  0  0  0  0
    1.5198   -1.6721    6.1165 H   0  0  0  0  0  0  0  0  0  0  0  0
   -0.8659   -2.0490    6.6938 H   0  0  0  0  0  0  0  0  0  0  0  0
   -3.9463   -2.5837    5.1269 N   0  0  0  0  0  0  0  0  0  0  0  0
  1  2  4  0  0  0  0
  2  3  4  0  0  0  0
  3  4  4  0  0  0  0
  4  5  4  0  0  0  0
  1  6  4  0  0  0  0
  5  6  4  0  0  0  0
  6  7  1  0  0  0  0
  5  8  1  0  0  0  0
  3  9  1  0  0  0  0
  2 10  1  0  0  0  0
 10 11  4  0  0  0  0
 11 12  4  0  0  0  0
 12 13  4  0  0  0  0
 13 14  4  0  0  0  0
 10 15  4  0  0  0  0
 14 15  4  0  0  0  0
 15 16  1  0  0  0  0
 13 17  1  0  0  0  0
 12 18  1  0  0  0  0
  1 19  1  0  0  0  0
 11 19  1  0  0  0  0
 19 20  1  0  0  0  0
 19 21  1  0  0  0  0
 21 22  1  0  0  0  0
 22 23  1  0  0  0  0
 23 24  1  0  0  0  0
 24 25  1  0  0  0  0
 24 26  1  0  0  0  0
 24 27  1  0  0  0  0
 23 28  1  0  0  0  0
 28 29  1  0  0  0  0
 28 30  1  0  0  0  0
 28 31  1  0  0  0  0
 23 32  1  0  0  0  0
 21 33  1  0  0  0  0
 32 33  1  0  0  0  0
 32 34  1  0  0  0  0
 34 35  1  0  0  0  0
 34 36  1  0  0  0  0
 34 37  1  0  0  0  0
 32 38  1  0  0  0  0
 38 39  1  0  0  0  0
 38 40  1  0  0  0  0
 38 41  1  0  0  0  0
 19 42  1  0  0  0  0
 42 43  1  0  0  0  0
 43 44  1  0  0  0  0
 44 45  1  0  0  0  0
 45 46  1  0  0  0  0
 45 47  1  0  0  0  0
 45 48  1  0  0  0  0
 44 49  1  0  0  0  0
 49 50  1  0  0  0  0
 49 51  1  0  0  0  0
 49 52  1  0  0  0  0
 44 53  1  0  0  0  0
 42 54  1  0  0  0  0
 53 54  1  0  0  0  0
 53 55  1  0  0  0  0
 55 56  1  0  0  0  0
 55 57  1  0  0  0  0
 55 58  1  0  0  0  0
 53 59  1  0  0  0  0
 59 60  1  0  0  0  0
 59 61  1  0  0  0  0
 59 62  1  0  0  0  0
 19 63  1  0  0  0  0
 63 64  1  0  0  0  0
 64 65  1  0  0  0  0
 65 66  1  0  0  0  0
 66 67  1  0  0  0  0
 66 68  1  0  0  0  0
 66 69  1  0  0  0  0
 65 70  1  0  0  0  0
 70 71  1  0  0  0  0
 70 72  1  0  0  0  0
 70 73  1  0  0  0  0
 65 74  1  0  0  0  0
 63 75  1  0  0  0  0
 74 75  1  0  0  0  0
 74 76  1  0  0  0  0
 76 77  1  0  0  0  0
 76 78  1  0  0  0  0
 76 79  1  0  0  0  0
 74 80  1  0  0  0  0
 80 81  1  0  0  0  0
 80 82  1  0  0  0  0
 80 83  1  0  0  0  0
  4 84  1  0  0  0  0
 14 85  1  0  0  0  0
 19 86  1  0  0  0  0
 20 86  1  0  0  0  0
 86 87  4  0  0  0  0
 86 88  4  0  0  0  0
 87 89  4  0  0  0  0
 87 90  1  0  0  0  0
 88 91  4  0  0  0  0
 88 92  1  0  0  0  0
 89 93  4  0  0  0  0
 91 93  4  0  0  0  0
 89 94  1  0  0  0  0
 91 95  1  0  0  0  0
 93 96  1  0  0  0  0
 94 97  3  0  0  0  0
M  END
