
  xtb     01142215153D
 xtb: 6.4.1 (1a32961)
107115  0     0  0            999 V2000
   -0.9405   -2.0155   -0.3562 N   0  0  0  0  0  0  0  0  0  0  0  0
   -2.2152   -1.5889   -0.4404 C   0  0  0  0  0  0  0  0  0  0  0  0
   -3.1423   -2.2511   -1.2572 C   0  0  0  0  0  0  0  0  0  0  0  0
   -2.7456   -3.3369   -2.0056 C   0  0  0  0  0  0  0  0  0  0  0  0
   -1.4181   -3.7524   -1.9247 C   0  0  0  0  0  0  0  0  0  0  0  0
   -0.5676   -3.0628   -1.0866 C   0  0  0  0  0  0  0  0  0  0  0  0
    0.4674   -3.3562   -0.9815 H   0  0  0  0  0  0  0  0  0  0  0  0
   -1.0622   -4.5951   -2.4946 H   0  0  0  0  0  0  0  0  0  0  0  0
   -4.1670   -1.9211   -1.3022 H   0  0  0  0  0  0  0  0  0  0  0  0
   -2.5590   -0.4156    0.3511 C   0  0  0  0  0  0  0  0  0  0  0  0
   -1.5931    0.0710    1.1597 N   0  0  0  0  0  0  0  0  0  0  0  0
   -1.8644    1.1397    1.9063 C   0  0  0  0  0  0  0  0  0  0  0  0
   -3.0817    1.7881    1.8947 C   0  0  0  0  0  0  0  0  0  0  0  0
   -4.0825    1.3102    1.0512 C   0  0  0  0  0  0  0  0  0  0  0  0
   -3.8131    0.2044    0.2752 C   0  0  0  0  0  0  0  0  0  0  0  0
   -4.5714   -0.1734   -0.3903 H   0  0  0  0  0  0  0  0  0  0  0  0
   -3.2490    2.6428    2.5302 H   0  0  0  0  0  0  0  0  0  0  0  0
   -1.0544    1.4791    2.5336 H   0  0  0  0  0  0  0  0  0  0  0  0
    0.4215   -0.8165    0.9133 Ir  0  0  0  0  0  0  0  0  0  0  0  0
    0.8726   -2.2303    1.5405 H   0  0  0  0  0  0  0  0  0  0  0  0
    0.3378    0.6745   -0.5470 B   0  0  0  0  0  0  0  0  0  0  0  0
   -0.3361    0.4258   -1.7287 O   0  0  0  0  0  0  0  0  0  0  0  0
   -0.4968    1.6427   -2.4665 C   0  0  0  0  0  0  0  0  0  0  0  0
   -0.2898    1.3741   -3.9548 C   0  0  0  0  0  0  0  0  0  0  0  0
    0.6448    0.8495   -4.1238 H   0  0  0  0  0  0  0  0  0  0  0  0
   -0.2897    2.3106   -4.5065 H   0  0  0  0  0  0  0  0  0  0  0  0
   -1.1012    0.7501   -4.3221 H   0  0  0  0  0  0  0  0  0  0  0  0
   -1.9368    2.1235   -2.2352 C   0  0  0  0  0  0  0  0  0  0  0  0
   -2.1494    3.0179   -2.8134 H   0  0  0  0  0  0  0  0  0  0  0  0
   -2.6211    1.3337   -2.5389 H   0  0  0  0  0  0  0  0  0  0  0  0
   -2.1007    2.3231   -1.1781 H   0  0  0  0  0  0  0  0  0  0  0  0
    0.5654    2.5822   -1.8077 C   0  0  0  0  0  0  0  0  0  0  0  0
    0.7414    1.9900   -0.5129 O   0  0  0  0  0  0  0  0  0  0  0  0
    1.9254    2.5136   -2.5129 C   0  0  0  0  0  0  0  0  0  0  0  0
    2.2571    1.4786   -2.5468 H   0  0  0  0  0  0  0  0  0  0  0  0
    1.8750    2.9326   -3.5137 H   0  0  0  0  0  0  0  0  0  0  0  0
    2.6503    3.0759   -1.9290 H   0  0  0  0  0  0  0  0  0  0  0  0
    0.1367    4.0409   -1.6625 C   0  0  0  0  0  0  0  0  0  0  0  0
   -0.7225    4.1362   -1.0057 H   0  0  0  0  0  0  0  0  0  0  0  0
    0.9562    4.6122   -1.2330 H   0  0  0  0  0  0  0  0  0  0  0  0
   -0.1052    4.4557   -2.6377 H   0  0  0  0  0  0  0  0  0  0  0  0
    1.5795    0.6366    1.8742 B   0  0  0  0  0  0  0  0  0  0  0  0
    2.9271    0.8668    1.7520 O   0  0  0  0  0  0  0  0  0  0  0  0
    3.2898    2.0929    2.4018 C   0  0  0  0  0  0  0  0  0  0  0  0
    4.5984    1.8946    3.1659 C   0  0  0  0  0  0  0  0  0  0  0  0
    4.5273    1.0444    3.8359 H   0  0  0  0  0  0  0  0  0  0  0  0
    5.3979    1.7018    2.4552 H   0  0  0  0  0  0  0  0  0  0  0  0
    4.8422    2.7892    3.7322 H   0  0  0  0  0  0  0  0  0  0  0  0
    3.4973    3.1293    1.2909 C   0  0  0  0  0  0  0  0  0  0  0  0
    3.7493    4.1047    1.6958 H   0  0  0  0  0  0  0  0  0  0  0  0
    4.3084    2.7913    0.6500 H   0  0  0  0  0  0  0  0  0  0  0  0
    2.5956    3.1862    0.6871 H   0  0  0  0  0  0  0  0  0  0  0  0
    2.0416    2.3967    3.3028 C   0  0  0  0  0  0  0  0  0  0  0  0
    1.0284    1.5503    2.7438 O   0  0  0  0  0  0  0  0  0  0  0  0
    1.5565    3.8460    3.2594 C   0  0  0  0  0  0  0  0  0  0  0  0
    1.2436    4.1169    2.2564 H   0  0  0  0  0  0  0  0  0  0  0  0
    0.7023    3.9521    3.9238 H   0  0  0  0  0  0  0  0  0  0  0  0
    2.3435    4.5165    3.5931 H   0  0  0  0  0  0  0  0  0  0  0  0
    2.2273    1.9772    4.7660 C   0  0  0  0  0  0  0  0  0  0  0  0
    2.5219    0.9335    4.8254 H   0  0  0  0  0  0  0  0  0  0  0  0
    2.9666    2.6006    5.2591 H   0  0  0  0  0  0  0  0  0  0  0  0
    1.2760    2.0823    5.2825 H   0  0  0  0  0  0  0  0  0  0  0  0
    2.2782   -1.3309    0.1741 B   0  0  0  0  0  0  0  0  0  0  0  0
    3.1747   -2.2588    0.6584 O   0  0  0  0  0  0  0  0  0  0  0  0
    4.4095   -2.1842   -0.0683 C   0  0  0  0  0  0  0  0  0  0  0  0
    5.3818   -1.3849    0.8057 C   0  0  0  0  0  0  0  0  0  0  0  0
    4.9362   -0.4218    1.0390 H   0  0  0  0  0  0  0  0  0  0  0  0
    5.5283   -1.9235    1.7388 H   0  0  0  0  0  0  0  0  0  0  0  0
    6.3422   -1.2557    0.3168 H   0  0  0  0  0  0  0  0  0  0  0  0
    4.9593   -3.5930   -0.2857 C   0  0  0  0  0  0  0  0  0  0  0  0
    5.2057   -4.0266    0.6798 H   0  0  0  0  0  0  0  0  0  0  0  0
    5.8583   -3.5516   -0.8943 H   0  0  0  0  0  0  0  0  0  0  0  0
    4.2266   -4.2339   -0.7646 H   0  0  0  0  0  0  0  0  0  0  0  0
    3.9961   -1.4225   -1.3755 C   0  0  0  0  0  0  0  0  0  0  0  0
    2.7593   -0.7980   -1.0007 O   0  0  0  0  0  0  0  0  0  0  0  0
    4.9818   -0.3483   -1.8316 C   0  0  0  0  0  0  0  0  0  0  0  0
    5.9607   -0.7840   -2.0112 H   0  0  0  0  0  0  0  0  0  0  0  0
    4.6205    0.0958   -2.7558 H   0  0  0  0  0  0  0  0  0  0  0  0
    5.0570    0.4360   -1.0864 H   0  0  0  0  0  0  0  0  0  0  0  0
    3.6925   -2.3590   -2.5531 C   0  0  0  0  0  0  0  0  0  0  0  0
    2.9691   -3.1138   -2.2572 H   0  0  0  0  0  0  0  0  0  0  0  0
    3.2537   -1.7731   -3.3571 H   0  0  0  0  0  0  0  0  0  0  0  0
    4.5971   -2.8376   -2.9158 H   0  0  0  0  0  0  0  0  0  0  0  0
   -3.4494   -3.8539   -2.6400 H   0  0  0  0  0  0  0  0  0  0  0  0
   -5.0465    1.7940    1.0050 H   0  0  0  0  0  0  0  0  0  0  0  0
    0.2359   -1.6814    2.9603 C   0  0  0  0  0  0  0  0  0  0  0  0
   -1.0665   -1.9434    3.3198 C   0  0  0  0  0  0  0  0  0  0  0  0
    1.1975   -1.6651    4.0071 C   0  0  0  0  0  0  0  0  0  0  0  0
   -1.4370   -2.0100    4.6793 C   0  0  0  0  0  0  0  0  0  0  0  0
   -1.8454   -2.0909    2.5851 H   0  0  0  0  0  0  0  0  0  0  0  0
    2.5902   -1.6229    3.7979 C   0  0  0  0  0  0  0  0  0  0  0  0
    0.7312   -1.7547    5.3504 C   0  0  0  0  0  0  0  0  0  0  0  0
   -0.5763   -1.8922    5.6575 N   0  0  0  0  0  0  0  0  0  0  0  0
   -2.8739   -2.2267    5.0509 C   0  0  0  0  0  0  0  0  0  0  0  0
    3.4625   -1.6365    4.8514 C   0  0  0  0  0  0  0  0  0  0  0  0
    2.9461   -1.5960    2.7820 H   0  0  0  0  0  0  0  0  0  0  0  0
    1.6567   -1.7396    6.4136 C   0  0  0  0  0  0  0  0  0  0  0  0
   -2.9588   -2.3298    6.1286 H   0  0  0  0  0  0  0  0  0  0  0  0
   -3.2559   -3.1247    4.5683 H   0  0  0  0  0  0  0  0  0  0  0  0
   -3.4773   -1.3813    4.7240 H   0  0  0  0  0  0  0  0  0  0  0  0
    3.0066   -1.6817    6.1840 C   0  0  0  0  0  0  0  0  0  0  0  0
    4.5279   -1.6161    4.6688 H   0  0  0  0  0  0  0  0  0  0  0  0
    1.2616   -1.7995    7.4167 H   0  0  0  0  0  0  0  0  0  0  0  0
    4.0012   -1.6886    7.3053 C   0  0  0  0  0  0  0  0  0  0  0  0
    4.6424   -0.8103    7.2479 H   0  0  0  0  0  0  0  0  0  0  0  0
    4.6379   -2.5699    7.2356 H   0  0  0  0  0  0  0  0  0  0  0  0
    3.4993   -1.6954    8.2689 H   0  0  0  0  0  0  0  0  0  0  0  0
  1  2  4  0  0  0  0
  2  3  4  0  0  0  0
  3  4  4  0  0  0  0
  4  5  4  0  0  0  0
  1  6  4  0  0  0  0
  5  6  4  0  0  0  0
  6  7  1  0  0  0  0
  5  8  1  0  0  0  0
  3  9  1  0  0  0  0
  2 10  1  0  0  0  0
 10 11  4  0  0  0  0
 11 12  4  0  0  0  0
 12 13  4  0  0  0  0
 13 14  4  0  0  0  0
 10 15  4  0  0  0  0
 14 15  4  0  0  0  0
 15 16  1  0  0  0  0
 13 17  1  0  0  0  0
 12 18  1  0  0  0  0
  1 19  1  0  0  0  0
 11 19  1  0  0  0  0
 19 20  1  0  0  0  0
 19 21  1  0  0  0  0
 21 22  1  0  0  0  0
 22 23  1  0  0  0  0
 23 24  1  0  0  0  0
 24 25  1  0  0  0  0
 24 26  1  0  0  0  0
 24 27  1  0  0  0  0
 23 28  1  0  0  0  0
 28 29  1  0  0  0  0
 28 30  1  0  0  0  0
 28 31  1  0  0  0  0
 23 32  1  0  0  0  0
 21 33  1  0  0  0  0
 32 33  1  0  0  0  0
 32 34  1  0  0  0  0
 34 35  1  0  0  0  0
 34 36  1  0  0  0  0
 34 37  1  0  0  0  0
 32 38  1  0  0  0  0
 38 39  1  0  0  0  0
 38 40  1  0  0  0  0
 38 41  1  0  0  0  0
 19 42  1  0  0  0  0
 42 43  1  0  0  0  0
 43 44  1  0  0  0  0
 44 45  1  0  0  0  0
 45 46  1  0  0  0  0
 45 47  1  0  0  0  0
 45 48  1  0  0  0  0
 44 49  1  0  0  0  0
 49 50  1  0  0  0  0
 49 51  1  0  0  0  0
 49 52  1  0  0  0  0
 44 53  1  0  0  0  0
 42 54  1  0  0  0  0
 53 54  1  0  0  0  0
 53 55  1  0  0  0  0
 55 56  1  0  0  0  0
 55 57  1  0  0  0  0
 55 58  1  0  0  0  0
 53 59  1  0  0  0  0
 59 60  1  0  0  0  0
 59 61  1  0  0  0  0
 59 62  1  0  0  0  0
 19 63  1  0  0  0  0
 63 64  1  0  0  0  0
 64 65  1  0  0  0  0
 65 66  1  0  0  0  0
 66 67  1  0  0  0  0
 66 68  1  0  0  0  0
 66 69  1  0  0  0  0
 65 70  1  0  0  0  0
 70 71  1  0  0  0  0
 70 72  1  0  0  0  0
 70 73  1  0  0  0  0
 65 74  1  0  0  0  0
 63 75  1  0  0  0  0
 74 75  1  0  0  0  0
 74 76  1  0  0  0  0
 76 77  1  0  0  0  0
 76 78  1  0  0  0  0
 76 79  1  0  0  0  0
 74 80  1  0  0  0  0
 80 81  1  0  0  0  0
 80 82  1  0  0  0  0
 80 83  1  0  0  0  0
  4 84  1  0  0  0  0
 14 85  1  0  0  0  0
 19 86  1  0  0  0  0
 20 86  1  0  0  0  0
 86 87  4  0  0  0  0
 86 88  4  0  0  0  0
 87 89  4  0  0  0  0
 87 90  1  0  0  0  0
 88 91  4  0  0  0  0
 88 92  4  0  0  0  0
 89 93  2  0  0  0  0
 92 93  4  0  0  0  0
 89 94  1  0  0  0  0
 91 95  2  0  0  0  0
 91 96  1  0  0  0  0
 92 97  4  0  0  0  0
 94 98  1  0  0  0  0
 94 99  1  0  0  0  0
 94100  1  0  0  0  0
 95101  4  0  0  0  0
 97101  2  0  0  0  0
 95102  1  0  0  0  0
 97103  1  0  0  0  0
101104  1  0  0  0  0
104105  1  0  0  0  0
104106  1  0  0  0  0
104107  1  0  0  0  0
M  END
