
  xtb     01142213393D
 xtb: 6.4.1 (1a32961)
 94101  0     0  0            999 V2000
   -0.8974   -2.0462   -0.3557 N   0  0  0  0  0  0  0  0  0  0  0  0
   -2.1562   -1.5928   -0.5242 C   0  0  0  0  0  0  0  0  0  0  0  0
   -3.0388   -2.2311   -1.4070 C   0  0  0  0  0  0  0  0  0  0  0  0
   -2.6192   -3.3283   -2.1242 C   0  0  0  0  0  0  0  0  0  0  0  0
   -1.3117   -3.7796   -1.9468 C   0  0  0  0  0  0  0  0  0  0  0  0
   -0.5033   -3.1072   -1.0561 C   0  0  0  0  0  0  0  0  0  0  0  0
    0.5143   -3.4274   -0.8799 H   0  0  0  0  0  0  0  0  0  0  0  0
   -0.9401   -4.6353   -2.4872 H   0  0  0  0  0  0  0  0  0  0  0  0
   -4.0479   -1.8720   -1.5272 H   0  0  0  0  0  0  0  0  0  0  0  0
   -2.5245   -0.4235    0.2574 C   0  0  0  0  0  0  0  0  0  0  0  0
   -1.5897    0.0436    1.1167 N   0  0  0  0  0  0  0  0  0  0  0  0
   -1.8898    1.1037    1.8665 C   0  0  0  0  0  0  0  0  0  0  0  0
   -3.0979    1.7652    1.8046 C   0  0  0  0  0  0  0  0  0  0  0  0
   -4.0623    1.3107    0.9062 C   0  0  0  0  0  0  0  0  0  0  0  0
   -3.7678    0.2106    0.1319 C   0  0  0  0  0  0  0  0  0  0  0  0
   -4.4976   -0.1534   -0.5726 H   0  0  0  0  0  0  0  0  0  0  0  0
   -3.2868    2.6160    2.4394 H   0  0  0  0  0  0  0  0  0  0  0  0
   -1.1065    1.4291    2.5335 H   0  0  0  0  0  0  0  0  0  0  0  0
    0.4215   -0.8165    0.9133 Ir  0  0  0  0  0  0  0  0  0  0  0  0
    0.8726   -2.2303    1.5405 H   0  0  0  0  0  0  0  0  0  0  0  0
    0.4326    0.5914   -0.6246 B   0  0  0  0  0  0  0  0  0  0  0  0
   -0.1542    0.2548   -1.8327 O   0  0  0  0  0  0  0  0  0  0  0  0
   -0.2316    1.4036   -2.6809 C   0  0  0  0  0  0  0  0  0  0  0  0
    0.1039    1.0033   -4.1159 C   0  0  0  0  0  0  0  0  0  0  0  0
    1.0419    0.4591   -4.1513 H   0  0  0  0  0  0  0  0  0  0  0  0
    0.1673    1.8856   -4.7477 H   0  0  0  0  0  0  0  0  0  0  0  0
   -0.6801    0.3534   -4.4975 H   0  0  0  0  0  0  0  0  0  0  0  0
   -1.6811    1.9075   -2.6226 C   0  0  0  0  0  0  0  0  0  0  0  0
   -1.8298    2.7565   -3.2834 H   0  0  0  0  0  0  0  0  0  0  0  0
   -2.3420    1.0987   -2.9290 H   0  0  0  0  0  0  0  0  0  0  0  0
   -1.9401    2.1849   -1.6026 H   0  0  0  0  0  0  0  0  0  0  0  0
    0.7826    2.3902   -2.0135 C   0  0  0  0  0  0  0  0  0  0  0  0
    0.8539    1.9022   -0.6676 O   0  0  0  0  0  0  0  0  0  0  0  0
    2.1937    2.2677   -2.6021 C   0  0  0  0  0  0  0  0  0  0  0  0
    2.5254    1.2360   -2.5136 H   0  0  0  0  0  0  0  0  0  0  0  0
    2.2236    2.5939   -3.6379 H   0  0  0  0  0  0  0  0  0  0  0  0
    2.8710    2.8850   -2.0162 H   0  0  0  0  0  0  0  0  0  0  0  0
    0.3539    3.8566   -2.0168 C   0  0  0  0  0  0  0  0  0  0  0  0
   -0.5574    4.0027   -1.4452 H   0  0  0  0  0  0  0  0  0  0  0  0
    1.1380    4.4574   -1.5623 H   0  0  0  0  0  0  0  0  0  0  0  0
    0.2001    4.1964   -3.0379 H   0  0  0  0  0  0  0  0  0  0  0  0
    1.5674    0.6319    1.8896 B   0  0  0  0  0  0  0  0  0  0  0  0
    2.9412    0.7173    1.9556 O   0  0  0  0  0  0  0  0  0  0  0  0
    3.3287    2.0045    2.4537 C   0  0  0  0  0  0  0  0  0  0  0  0
    4.5480    1.8660    3.3638 C   0  0  0  0  0  0  0  0  0  0  0  0
    4.3745    1.1272    4.1391 H   0  0  0  0  0  0  0  0  0  0  0  0
    5.3999    1.5412    2.7717 H   0  0  0  0  0  0  0  0  0  0  0  0
    4.7840    2.8241    3.8194 H   0  0  0  0  0  0  0  0  0  0  0  0
    3.6937    2.8526    1.2291 C   0  0  0  0  0  0  0  0  0  0  0  0
    3.9922    3.8580    1.5115 H   0  0  0  0  0  0  0  0  0  0  0  0
    4.5177    2.3716    0.7068 H   0  0  0  0  0  0  0  0  0  0  0  0
    2.8420    2.8793    0.5541 H   0  0  0  0  0  0  0  0  0  0  0  0
    2.0257    2.5034    3.1648 C   0  0  0  0  0  0  0  0  0  0  0  0
    1.0075    1.7047    2.5504 O   0  0  0  0  0  0  0  0  0  0  0  0
    1.7048    3.9820    2.9521 C   0  0  0  0  0  0  0  0  0  0  0  0
    1.5164    4.1829    1.9028 H   0  0  0  0  0  0  0  0  0  0  0  0
    0.8097    4.2377    3.5138 H   0  0  0  0  0  0  0  0  0  0  0  0
    2.5275    4.5993    3.3032 H   0  0  0  0  0  0  0  0  0  0  0  0
    2.0033    2.1899    4.6665 C   0  0  0  0  0  0  0  0  0  0  0  0
    2.1817    1.1300    4.8258 H   0  0  0  0  0  0  0  0  0  0  0  0
    2.7434    2.7787    5.2001 H   0  0  0  0  0  0  0  0  0  0  0  0
    1.0159    2.4251    5.0567 H   0  0  0  0  0  0  0  0  0  0  0  0
    2.2782   -1.3309    0.1741 B   0  0  0  0  0  0  0  0  0  0  0  0
    3.0575   -2.3771    0.6295 O   0  0  0  0  0  0  0  0  0  0  0  0
    4.3584   -2.3240    0.0332 C   0  0  0  0  0  0  0  0  0  0  0  0
    5.2867   -1.6843    1.0719 C   0  0  0  0  0  0  0  0  0  0  0  0
    4.8773   -0.7202    1.3608 H   0  0  0  0  0  0  0  0  0  0  0  0
    5.3031   -2.3185    1.9547 H   0  0  0  0  0  0  0  0  0  0  0  0
    6.2983   -1.5770    0.6925 H   0  0  0  0  0  0  0  0  0  0  0  0
    4.8398   -3.7412   -0.2758 C   0  0  0  0  0  0  0  0  0  0  0  0
    4.9512   -4.2840    0.6592 H   0  0  0  0  0  0  0  0  0  0  0  0
    5.8011   -3.7072   -0.7811 H   0  0  0  0  0  0  0  0  0  0  0  0
    4.1250   -4.2761   -0.8921 H   0  0  0  0  0  0  0  0  0  0  0  0
    4.1251   -1.4115   -1.2202 C   0  0  0  0  0  0  0  0  0  0  0  0
    2.9088   -0.7252   -0.8915 O   0  0  0  0  0  0  0  0  0  0  0  0
    5.2288   -0.3882   -1.4823 C   0  0  0  0  0  0  0  0  0  0  0  0
    6.1822   -0.8898   -1.6246 H   0  0  0  0  0  0  0  0  0  0  0  0
    4.9892    0.1738   -2.3816 H   0  0  0  0  0  0  0  0  0  0  0  0
    5.2996    0.3101   -0.6557 H   0  0  0  0  0  0  0  0  0  0  0  0
    3.8633   -2.2080   -2.5062 C   0  0  0  0  0  0  0  0  0  0  0  0
    3.0538   -2.9160   -2.3499 H   0  0  0  0  0  0  0  0  0  0  0  0
    3.5559   -1.5164   -3.2874 H   0  0  0  0  0  0  0  0  0  0  0  0
    4.7569   -2.7328   -2.8305 H   0  0  0  0  0  0  0  0  0  0  0  0
   -3.2887   -3.8283   -2.8079 H   0  0  0  0  0  0  0  0  0  0  0  0
   -5.0168    1.8077    0.8174 H   0  0  0  0  0  0  0  0  0  0  0  0
    0.2359   -1.6814    2.9603 C   0  0  0  0  0  0  0  0  0  0  0  0
   -0.9919   -2.0149    3.4810 C   0  0  0  0  0  0  0  0  0  0  0  0
    1.1147   -1.5706    4.0669 C   0  0  0  0  0  0  0  0  0  0  0  0
   -0.8954   -2.0645    4.8406 N   0  0  0  0  0  0  0  0  0  0  0  0
   -1.9257   -2.2162    2.9920 H   0  0  0  0  0  0  0  0  0  0  0  0
    0.3871   -1.7952    5.2033 C   0  0  0  0  0  0  0  0  0  0  0  0
    2.1616   -1.3501    4.0052 H   0  0  0  0  0  0  0  0  0  0  0  0
   -1.6503   -2.2681    5.4738 H   0  0  0  0  0  0  0  0  0  0  0  0
    0.6838   -1.7874    6.2342 H   0  0  0  0  0  0  0  0  0  0  0  0
  1  2  4  0  0  0  0
  2  3  4  0  0  0  0
  3  4  4  0  0  0  0
  4  5  4  0  0  0  0
  1  6  4  0  0  0  0
  5  6  4  0  0  0  0
  6  7  1  0  0  0  0
  5  8  1  0  0  0  0
  3  9  1  0  0  0  0
  2 10  1  0  0  0  0
 10 11  4  0  0  0  0
 11 12  4  0  0  0  0
 12 13  4  0  0  0  0
 13 14  4  0  0  0  0
 10 15  4  0  0  0  0
 14 15  4  0  0  0  0
 15 16  1  0  0  0  0
 13 17  1  0  0  0  0
 12 18  1  0  0  0  0
  1 19  1  0  0  0  0
 11 19  1  0  0  0  0
 19 20  1  0  0  0  0
 19 21  1  0  0  0  0
 21 22  1  0  0  0  0
 22 23  1  0  0  0  0
 23 24  1  0  0  0  0
 24 25  1  0  0  0  0
 24 26  1  0  0  0  0
 24 27  1  0  0  0  0
 23 28  1  0  0  0  0
 28 29  1  0  0  0  0
 28 30  1  0  0  0  0
 28 31  1  0  0  0  0
 23 32  1  0  0  0  0
 21 33  1  0  0  0  0
 32 33  1  0  0  0  0
 32 34  1  0  0  0  0
 34 35  1  0  0  0  0
 34 36  1  0  0  0  0
 34 37  1  0  0  0  0
 32 38  1  0  0  0  0
 38 39  1  0  0  0  0
 38 40  1  0  0  0  0
 38 41  1  0  0  0  0
 19 42  1  0  0  0  0
 42 43  1  0  0  0  0
 43 44  1  0  0  0  0
 44 45  1  0  0  0  0
 45 46  1  0  0  0  0
 45 47  1  0  0  0  0
 45 48  1  0  0  0  0
 44 49  1  0  0  0  0
 49 50  1  0  0  0  0
 49 51  1  0  0  0  0
 49 52  1  0  0  0  0
 44 53  1  0  0  0  0
 42 54  1  0  0  0  0
 53 54  1  0  0  0  0
 53 55  1  0  0  0  0
 55 56  1  0  0  0  0
 55 57  1  0  0  0  0
 55 58  1  0  0  0  0
 53 59  1  0  0  0  0
 59 60  1  0  0  0  0
 59 61  1  0  0  0  0
 59 62  1  0  0  0  0
 19 63  1  0  0  0  0
 63 64  1  0  0  0  0
 64 65  1  0  0  0  0
 65 66  1  0  0  0  0
 66 67  1  0  0  0  0
 66 68  1  0  0  0  0
 66 69  1  0  0  0  0
 65 70  1  0  0  0  0
 70 71  1  0  0  0  0
 70 72  1  0  0  0  0
 70 73  1  0  0  0  0
 65 74  1  0  0  0  0
 63 75  1  0  0  0  0
 74 75  1  0  0  0  0
 74 76  1  0  0  0  0
 76 77  1  0  0  0  0
 76 78  1  0  0  0  0
 76 79  1  0  0  0  0
 74 80  1  0  0  0  0
 80 81  1  0  0  0  0
 80 82  1  0  0  0  0
 80 83  1  0  0  0  0
  4 84  1  0  0  0  0
 14 85  1  0  0  0  0
 19 86  1  0  0  0  0
 20 86  1  0  0  0  0
 86 87  2  0  0  0  0
 86 88  4  0  0  0  0
 87 89  4  0  0  0  0
 87 90  1  0  0  0  0
 88 91  2  0  0  0  0
 89 91  4  0  0  0  0
 88 92  1  0  0  0  0
 89 93  1  0  0  0  0
 91 94  1  0  0  0  0
M  END
