
  xtb     01142213163D
 xtb: 6.4.1 (1a32961)
 97104  0     0  0            999 V2000
   -0.9583   -2.0489   -0.3295 N   0  0  0  0  0  0  0  0  0  0  0  0
   -2.2227   -1.6006   -0.4435 C   0  0  0  0  0  0  0  0  0  0  0  0
   -3.1641   -2.2925   -1.2184 C   0  0  0  0  0  0  0  0  0  0  0  0
   -2.7868   -3.4266   -1.9027 C   0  0  0  0  0  0  0  0  0  0  0  0
   -1.4672   -3.8618   -1.7971 C   0  0  0  0  0  0  0  0  0  0  0  0
   -0.6042   -3.1440   -0.9955 C   0  0  0  0  0  0  0  0  0  0  0  0
    0.4238   -3.4530   -0.8672 H   0  0  0  0  0  0  0  0  0  0  0  0
   -1.1267   -4.7412   -2.3190 H   0  0  0  0  0  0  0  0  0  0  0  0
   -4.1842   -1.9499   -1.2751 H   0  0  0  0  0  0  0  0  0  0  0  0
   -2.5393   -0.3739    0.2743 C   0  0  0  0  0  0  0  0  0  0  0  0
   -1.5901    0.0977    1.1141 N   0  0  0  0  0  0  0  0  0  0  0  0
   -1.8429    1.2165    1.7940 C   0  0  0  0  0  0  0  0  0  0  0  0
   -3.0174    1.9294    1.6792 C   0  0  0  0  0  0  0  0  0  0  0  0
   -3.9930    1.4706    0.7959 C   0  0  0  0  0  0  0  0  0  0  0  0
   -3.7452    0.3136    0.0902 C   0  0  0  0  0  0  0  0  0  0  0  0
   -4.4786   -0.0498   -0.6105 H   0  0  0  0  0  0  0  0  0  0  0  0
   -3.1699    2.8232    2.2623 H   0  0  0  0  0  0  0  0  0  0  0  0
   -1.0505    1.5430    2.4502 H   0  0  0  0  0  0  0  0  0  0  0  0
    0.4215   -0.8165    0.9133 Ir  0  0  0  0  0  0  0  0  0  0  0  0
    0.8726   -2.2303    1.5405 H   0  0  0  0  0  0  0  0  0  0  0  0
    0.3814    0.6173   -0.5998 B   0  0  0  0  0  0  0  0  0  0  0  0
   -0.1811    0.2755   -1.8137 O   0  0  0  0  0  0  0  0  0  0  0  0
   -0.2688    1.4279   -2.6602 C   0  0  0  0  0  0  0  0  0  0  0  0
    0.1202    1.0403   -4.0849 C   0  0  0  0  0  0  0  0  0  0  0  0
    1.0780    0.5310   -4.0941 H   0  0  0  0  0  0  0  0  0  0  0  0
    0.1672    1.9242   -4.7157 H   0  0  0  0  0  0  0  0  0  0  0  0
   -0.6286    0.3612   -4.4858 H   0  0  0  0  0  0  0  0  0  0  0  0
   -1.7326    1.8911   -2.6450 C   0  0  0  0  0  0  0  0  0  0  0  0
   -1.8809    2.7407   -3.3050 H   0  0  0  0  0  0  0  0  0  0  0  0
   -2.3622    1.0689   -2.9793 H   0  0  0  0  0  0  0  0  0  0  0  0
   -2.0328    2.1556   -1.6331 H   0  0  0  0  0  0  0  0  0  0  0  0
    0.6978    2.4404   -1.9598 C   0  0  0  0  0  0  0  0  0  0  0  0
    0.7542    1.9406   -0.6153 O   0  0  0  0  0  0  0  0  0  0  0  0
    2.1251    2.3685   -2.5155 C   0  0  0  0  0  0  0  0  0  0  0  0
    2.4897    1.3484   -2.4219 H   0  0  0  0  0  0  0  0  0  0  0  0
    2.1656    2.6987   -3.5493 H   0  0  0  0  0  0  0  0  0  0  0  0
    2.7668    3.0077   -1.9141 H   0  0  0  0  0  0  0  0  0  0  0  0
    0.2227    3.8918   -1.9548 C   0  0  0  0  0  0  0  0  0  0  0  0
   -0.7111    4.0001   -1.4119 H   0  0  0  0  0  0  0  0  0  0  0  0
    0.9720    4.5083   -1.4645 H   0  0  0  0  0  0  0  0  0  0  0  0
    0.0923    4.2435   -2.9750 H   0  0  0  0  0  0  0  0  0  0  0  0
    1.6055    0.6164    1.8666 B   0  0  0  0  0  0  0  0  0  0  0  0
    2.9600    0.8054    1.7752 O   0  0  0  0  0  0  0  0  0  0  0  0
    3.3232    2.0526    2.3867 C   0  0  0  0  0  0  0  0  0  0  0  0
    4.6522    1.9024    3.1240 C   0  0  0  0  0  0  0  0  0  0  0  0
    4.6282    1.0517    3.7960 H   0  0  0  0  0  0  0  0  0  0  0  0
    5.4454    1.7404    2.3987 H   0  0  0  0  0  0  0  0  0  0  0  0
    4.8718    2.8064    3.6856 H   0  0  0  0  0  0  0  0  0  0  0  0
    3.4773    3.0680    1.2483 C   0  0  0  0  0  0  0  0  0  0  0  0
    3.7483    4.0501    1.6244 H   0  0  0  0  0  0  0  0  0  0  0  0
    4.2564    2.7166    0.5759 H   0  0  0  0  0  0  0  0  0  0  0  0
    2.5476    3.1143    0.6870 H   0  0  0  0  0  0  0  0  0  0  0  0
    2.0897    2.3536    3.3017 C   0  0  0  0  0  0  0  0  0  0  0  0
    1.0522    1.5661    2.6976 O   0  0  0  0  0  0  0  0  0  0  0  0
    1.6589    3.8180    3.3436 C   0  0  0  0  0  0  0  0  0  0  0  0
    1.3387    4.1533    2.3627 H   0  0  0  0  0  0  0  0  0  0  0  0
    0.8230    3.9242    4.0309 H   0  0  0  0  0  0  0  0  0  0  0  0
    2.4800    4.4382    3.6928 H   0  0  0  0  0  0  0  0  0  0  0  0
    2.2711    1.8278    4.7297 C   0  0  0  0  0  0  0  0  0  0  0  0
    2.5329    0.7743    4.6929 H   0  0  0  0  0  0  0  0  0  0  0  0
    3.0318    2.3891    5.2631 H   0  0  0  0  0  0  0  0  0  0  0  0
    1.3250    1.9205    5.2587 H   0  0  0  0  0  0  0  0  0  0  0  0
    2.2782   -1.3309    0.1741 B   0  0  0  0  0  0  0  0  0  0  0  0
    3.0748   -2.3529    0.6357 O   0  0  0  0  0  0  0  0  0  0  0  0
    4.3683   -2.2925    0.0189 C   0  0  0  0  0  0  0  0  0  0  0  0
    5.3111   -1.6592    1.0473 C   0  0  0  0  0  0  0  0  0  0  0  0
    4.9010   -0.7021    1.3565 H   0  0  0  0  0  0  0  0  0  0  0  0
    5.3507   -2.3054    1.9202 H   0  0  0  0  0  0  0  0  0  0  0  0
    6.3138   -1.5393    0.6490 H   0  0  0  0  0  0  0  0  0  0  0  0
    4.8435   -3.7096   -0.3013 C   0  0  0  0  0  0  0  0  0  0  0  0
    4.9529   -4.2585    0.6303 H   0  0  0  0  0  0  0  0  0  0  0  0
    5.8047   -3.6765   -0.8064 H   0  0  0  0  0  0  0  0  0  0  0  0
    4.1264   -4.2381   -0.9204 H   0  0  0  0  0  0  0  0  0  0  0  0
    4.1155   -1.3755   -1.2303 C   0  0  0  0  0  0  0  0  0  0  0  0
    2.8748   -0.7278   -0.9072 O   0  0  0  0  0  0  0  0  0  0  0  0
    5.1841   -0.3097   -1.4676 C   0  0  0  0  0  0  0  0  0  0  0  0
    6.1560   -0.7732   -1.6112 H   0  0  0  0  0  0  0  0  0  0  0  0
    4.9295    0.2570   -2.3596 H   0  0  0  0  0  0  0  0  0  0  0  0
    5.2206    0.3763   -0.6287 H   0  0  0  0  0  0  0  0  0  0  0  0
    3.8924   -2.1624   -2.5287 C   0  0  0  0  0  0  0  0  0  0  0  0
    3.0938   -2.8874   -2.3970 H   0  0  0  0  0  0  0  0  0  0  0  0
    3.5880   -1.4678   -3.3080 H   0  0  0  0  0  0  0  0  0  0  0  0
    4.8019   -2.6666   -2.8408 H   0  0  0  0  0  0  0  0  0  0  0  0
   -3.5002   -3.9676   -2.5056 H   0  0  0  0  0  0  0  0  0  0  0  0
   -4.9190    2.0092    0.6637 H   0  0  0  0  0  0  0  0  0  0  0  0
    0.2359   -1.6814    2.9603 C   0  0  0  0  0  0  0  0  0  0  0  0
   -1.0670   -2.0512    3.3228 C   0  0  0  0  0  0  0  0  0  0  0  0
    1.1652   -1.5596    3.8984 N   0  0  0  0  0  0  0  0  0  0  0  0
   -1.3306   -2.1677    4.6737 C   0  0  0  0  0  0  0  0  0  0  0  0
   -1.8412   -2.2344    2.5947 H   0  0  0  0  0  0  0  0  0  0  0  0
    0.8302   -1.7354    5.1687 C   0  0  0  0  0  0  0  0  0  0  0  0
   -0.3956   -2.0131    5.6022 N   0  0  0  0  0  0  0  0  0  0  0  0
   -2.3215   -2.4090    5.0430 H   0  0  0  0  0  0  0  0  0  0  0  0
    1.9081   -1.6302    6.1984 C   0  0  0  0  0  0  0  0  0  0  0  0
    2.8756   -1.5814    5.7106 H   0  0  0  0  0  0  0  0  0  0  0  0
    1.8622   -2.4915    6.8601 H   0  0  0  0  0  0  0  0  0  0  0  0
    1.7538   -0.7373    6.8007 H   0  0  0  0  0  0  0  0  0  0  0  0
  1  2  4  0  0  0  0
  2  3  4  0  0  0  0
  3  4  4  0  0  0  0
  4  5  4  0  0  0  0
  1  6  4  0  0  0  0
  5  6  4  0  0  0  0
  6  7  1  0  0  0  0
  5  8  1  0  0  0  0
  3  9  1  0  0  0  0
  2 10  1  0  0  0  0
 10 11  4  0  0  0  0
 11 12  4  0  0  0  0
 12 13  4  0  0  0  0
 13 14  4  0  0  0  0
 10 15  4  0  0  0  0
 14 15  4  0  0  0  0
 15 16  1  0  0  0  0
 13 17  1  0  0  0  0
 12 18  1  0  0  0  0
  1 19  1  0  0  0  0
 11 19  1  0  0  0  0
 19 20  1  0  0  0  0
 19 21  1  0  0  0  0
 21 22  1  0  0  0  0
 22 23  1  0  0  0  0
 23 24  1  0  0  0  0
 24 25  1  0  0  0  0
 24 26  1  0  0  0  0
 24 27  1  0  0  0  0
 23 28  1  0  0  0  0
 28 29  1  0  0  0  0
 28 30  1  0  0  0  0
 28 31  1  0  0  0  0
 23 32  1  0  0  0  0
 21 33  1  0  0  0  0
 32 33  1  0  0  0  0
 32 34  1  0  0  0  0
 34 35  1  0  0  0  0
 34 36  1  0  0  0  0
 34 37  1  0  0  0  0
 32 38  1  0  0  0  0
 38 39  1  0  0  0  0
 38 40  1  0  0  0  0
 38 41  1  0  0  0  0
 19 42  1  0  0  0  0
 42 43  1  0  0  0  0
 43 44  1  0  0  0  0
 44 45  1  0  0  0  0
 45 46  1  0  0  0  0
 45 47  1  0  0  0  0
 45 48  1  0  0  0  0
 44 49  1  0  0  0  0
 49 50  1  0  0  0  0
 49 51  1  0  0  0  0
 49 52  1  0  0  0  0
 44 53  1  0  0  0  0
 42 54  1  0  0  0  0
 53 54  1  0  0  0  0
 53 55  1  0  0  0  0
 55 56  1  0  0  0  0
 55 57  1  0  0  0  0
 55 58  1  0  0  0  0
 53 59  1  0  0  0  0
 59 60  1  0  0  0  0
 59 61  1  0  0  0  0
 59 62  1  0  0  0  0
 19 63  1  0  0  0  0
 63 64  1  0  0  0  0
 64 65  1  0  0  0  0
 65 66  1  0  0  0  0
 66 67  1  0  0  0  0
 66 68  1  0  0  0  0
 66 69  1  0  0  0  0
 65 70  1  0  0  0  0
 70 71  1  0  0  0  0
 70 72  1  0  0  0  0
 70 73  1  0  0  0  0
 65 74  1  0  0  0  0
 63 75  1  0  0  0  0
 74 75  1  0  0  0  0
 74 76  1  0  0  0  0
 76 77  1  0  0  0  0
 76 78  1  0  0  0  0
 76 79  1  0  0  0  0
 74 80  1  0  0  0  0
 80 81  1  0  0  0  0
 80 82  1  0  0  0  0
 80 83  1  0  0  0  0
  4 84  1  0  0  0  0
 14 85  1  0  0  0  0
 19 86  1  0  0  0  0
 20 86  1  0  0  0  0
 86 87  4  0  0  0  0
 86 88  4  0  0  0  0
 87 89  4  0  0  0  0
 87 90  1  0  0  0  0
 88 91  4  0  0  0  0
 89 92  4  0  0  0  0
 91 92  4  0  0  0  0
 89 93  1  0  0  0  0
 91 94  1  0  0  0  0
 94 95  1  0  0  0  0
 94 96  1  0  0  0  0
 94 97  1  0  0  0  0
M  END
