
  xtb     01142215323D
 xtb: 6.4.1 (1a32961)
101108  0     0  0            999 V2000
   -0.8913   -2.0170   -0.3883 N   0  0  0  0  0  0  0  0  0  0  0  0
   -2.1453   -1.5568   -0.5497 C   0  0  0  0  0  0  0  0  0  0  0  0
   -3.0261   -2.1709   -1.4484 C   0  0  0  0  0  0  0  0  0  0  0  0
   -2.6093   -3.2573   -2.1851 C   0  0  0  0  0  0  0  0  0  0  0  0
   -1.3066   -3.7187   -2.0121 C   0  0  0  0  0  0  0  0  0  0  0  0
   -0.4982   -3.0657   -1.1065 C   0  0  0  0  0  0  0  0  0  0  0  0
    0.5183   -3.3915   -0.9340 H   0  0  0  0  0  0  0  0  0  0  0  0
   -0.9369   -4.5670   -2.5651 H   0  0  0  0  0  0  0  0  0  0  0  0
   -4.0331   -1.8062   -1.5636 H   0  0  0  0  0  0  0  0  0  0  0  0
   -2.5195   -0.4072    0.2623 C   0  0  0  0  0  0  0  0  0  0  0  0
   -1.5879    0.0500    1.1251 N   0  0  0  0  0  0  0  0  0  0  0  0
   -1.8986    1.0786    1.9122 C   0  0  0  0  0  0  0  0  0  0  0  0
   -3.1204    1.7177    1.8858 C   0  0  0  0  0  0  0  0  0  0  0  0
   -4.0820    1.2749    0.9817 C   0  0  0  0  0  0  0  0  0  0  0  0
   -3.7731    0.2075    0.1672 C   0  0  0  0  0  0  0  0  0  0  0  0
   -4.5046   -0.1509   -0.5373 H   0  0  0  0  0  0  0  0  0  0  0  0
   -3.3193    2.5406    2.5534 H   0  0  0  0  0  0  0  0  0  0  0  0
   -1.1133    1.3985    2.5803 H   0  0  0  0  0  0  0  0  0  0  0  0
    0.4215   -0.8165    0.9133 Ir  0  0  0  0  0  0  0  0  0  0  0  0
    0.8726   -2.2303    1.5405 H   0  0  0  0  0  0  0  0  0  0  0  0
    0.4206    0.6253   -0.5918 B   0  0  0  0  0  0  0  0  0  0  0  0
   -0.1935    0.3453   -1.7990 O   0  0  0  0  0  0  0  0  0  0  0  0
   -0.2947    1.5361   -2.5862 C   0  0  0  0  0  0  0  0  0  0  0  0
   -0.0078    1.2108   -4.0501 C   0  0  0  0  0  0  0  0  0  0  0  0
    0.9282    0.6705   -4.1462 H   0  0  0  0  0  0  0  0  0  0  0  0
    0.0351    2.1257   -4.6355 H   0  0  0  0  0  0  0  0  0  0  0  0
   -0.8050    0.5816   -4.4387 H   0  0  0  0  0  0  0  0  0  0  0  0
   -1.7391    2.0404   -2.4543 C   0  0  0  0  0  0  0  0  0  0  0  0
   -1.9054    2.9209   -3.0678 H   0  0  0  0  0  0  0  0  0  0  0  0
   -2.4139    1.2496   -2.7767 H   0  0  0  0  0  0  0  0  0  0  0  0
   -1.9632    2.2688   -1.4140 H   0  0  0  0  0  0  0  0  0  0  0  0
    0.7435    2.4855   -1.9030 C   0  0  0  0  0  0  0  0  0  0  0  0
    0.8467    1.9347   -0.5830 O   0  0  0  0  0  0  0  0  0  0  0  0
    2.1378    2.3810   -2.5335 C   0  0  0  0  0  0  0  0  0  0  0  0
    2.4612    1.3430   -2.5099 H   0  0  0  0  0  0  0  0  0  0  0  0
    2.1437    2.7617   -3.5508 H   0  0  0  0  0  0  0  0  0  0  0  0
    2.8361    2.9601   -1.9337 H   0  0  0  0  0  0  0  0  0  0  0  0
    0.3254    3.9526   -1.8275 C   0  0  0  0  0  0  0  0  0  0  0  0
   -0.5699    4.0774   -1.2262 H   0  0  0  0  0  0  0  0  0  0  0  0
    1.1254    4.5275   -1.3672 H   0  0  0  0  0  0  0  0  0  0  0  0
    0.1472    4.3395   -2.8277 H   0  0  0  0  0  0  0  0  0  0  0  0
    1.5644    0.6231    1.9111 B   0  0  0  0  0  0  0  0  0  0  0  0
    2.9354    0.7340    1.9518 O   0  0  0  0  0  0  0  0  0  0  0  0
    3.3106    2.0026    2.5073 C   0  0  0  0  0  0  0  0  0  0  0  0
    4.5463    1.8386    3.3909 C   0  0  0  0  0  0  0  0  0  0  0  0
    4.3988    1.0553    4.1267 H   0  0  0  0  0  0  0  0  0  0  0  0
    5.3948    1.5633    2.7699 H   0  0  0  0  0  0  0  0  0  0  0  0
    4.7711    2.7748    3.8947 H   0  0  0  0  0  0  0  0  0  0  0  0
    3.6431    2.9155    1.3211 C   0  0  0  0  0  0  0  0  0  0  0  0
    3.9292    3.9105    1.6493 H   0  0  0  0  0  0  0  0  0  0  0  0
    4.4672    2.4749    0.7645 H   0  0  0  0  0  0  0  0  0  0  0  0
    2.7813    2.9613    0.6602 H   0  0  0  0  0  0  0  0  0  0  0  0
    2.0119    2.4434    3.2636 C   0  0  0  0  0  0  0  0  0  0  0  0
    0.9967    1.6512    2.6331 O   0  0  0  0  0  0  0  0  0  0  0  0
    1.6584    3.9231    3.1250 C   0  0  0  0  0  0  0  0  0  0  0  0
    1.4551    4.1716    2.0889 H   0  0  0  0  0  0  0  0  0  0  0  0
    0.7641    4.1321    3.7069 H   0  0  0  0  0  0  0  0  0  0  0  0
    2.4715    4.5397    3.4986 H   0  0  0  0  0  0  0  0  0  0  0  0
    2.0224    2.0628    4.7498 C   0  0  0  0  0  0  0  0  0  0  0  0
    2.2193    0.9999    4.8576 H   0  0  0  0  0  0  0  0  0  0  0  0
    2.7637    2.6378    5.2960 H   0  0  0  0  0  0  0  0  0  0  0  0
    1.0390    2.2661    5.1668 H   0  0  0  0  0  0  0  0  0  0  0  0
    2.2782   -1.3309    0.1741 B   0  0  0  0  0  0  0  0  0  0  0  0
    3.0928   -2.3309    0.6666 O   0  0  0  0  0  0  0  0  0  0  0  0
    4.3808   -2.2774    0.0398 C   0  0  0  0  0  0  0  0  0  0  0  0
    5.3180   -1.5785    1.0308 C   0  0  0  0  0  0  0  0  0  0  0  0
    4.8935   -0.6135    1.2934 H   0  0  0  0  0  0  0  0  0  0  0  0
    5.3702   -2.1787    1.9356 H   0  0  0  0  0  0  0  0  0  0  0  0
    6.3174   -1.4635    0.6228 H   0  0  0  0  0  0  0  0  0  0  0  0
    4.8833   -3.6970   -0.2210 C   0  0  0  0  0  0  0  0  0  0  0  0
    5.0270   -4.1984    0.7325 H   0  0  0  0  0  0  0  0  0  0  0  0
    5.8317   -3.6657   -0.7500 H   0  0  0  0  0  0  0  0  0  0  0  0
    4.1657   -4.2712   -0.7975 H   0  0  0  0  0  0  0  0  0  0  0  0
    4.1037   -1.4233   -1.2462 C   0  0  0  0  0  0  0  0  0  0  0  0
    2.8720   -0.7582   -0.9280 O   0  0  0  0  0  0  0  0  0  0  0  0
    5.1715   -0.3781   -1.5641 C   0  0  0  0  0  0  0  0  0  0  0  0
    6.1380   -0.8551   -1.7010 H   0  0  0  0  0  0  0  0  0  0  0  0
    4.9017    0.1394   -2.4813 H   0  0  0  0  0  0  0  0  0  0  0  0
    5.2311    0.3549   -0.7671 H   0  0  0  0  0  0  0  0  0  0  0  0
    3.8480   -2.2770   -2.4959 C   0  0  0  0  0  0  0  0  0  0  0  0
    3.0654   -3.0049   -2.2997 H   0  0  0  0  0  0  0  0  0  0  0  0
    3.5049   -1.6262   -3.2966 H   0  0  0  0  0  0  0  0  0  0  0  0
    4.7533   -2.7845   -2.8152 H   0  0  0  0  0  0  0  0  0  0  0  0
   -3.2796   -3.7404   -2.8798 H   0  0  0  0  0  0  0  0  0  0  0  0
   -5.0481    1.7527    0.9198 H   0  0  0  0  0  0  0  0  0  0  0  0
    0.2359   -1.6814    2.9603 C   0  0  0  0  0  0  0  0  0  0  0  0
   -0.9964   -2.0528    3.5060 C   0  0  0  0  0  0  0  0  0  0  0  0
    1.1202   -1.6046    4.0509 C   0  0  0  0  0  0  0  0  0  0  0  0
   -0.8660   -2.1452    4.8808 N   0  0  0  0  0  0  0  0  0  0  0  0
   -2.1878   -2.3351    2.8581 C   0  0  0  0  0  0  0  0  0  0  0  0
    0.4213   -1.8730    5.2095 C   0  0  0  0  0  0  0  0  0  0  0  0
    2.1649   -1.3781    3.9766 H   0  0  0  0  0  0  0  0  0  0  0  0
   -1.9175   -2.4741    5.8027 C   0  0  0  0  0  0  0  0  0  0  0  0
   -3.1800   -2.5915    2.3242 N   0  0  0  0  0  0  0  0  0  0  0  0
    0.8951   -1.9056    6.6186 C   0  0  0  0  0  0  0  0  0  0  0  0
   -2.8394   -2.6396    5.2475 H   0  0  0  0  0  0  0  0  0  0  0  0
   -2.0726   -1.6595    6.5136 H   0  0  0  0  0  0  0  0  0  0  0  0
   -1.6706   -3.3821    6.3575 H   0  0  0  0  0  0  0  0  0  0  0  0
    1.9541   -1.6690    6.6500 H   0  0  0  0  0  0  0  0  0  0  0  0
    0.7442   -2.8933    7.0544 H   0  0  0  0  0  0  0  0  0  0  0  0
    0.3552   -1.1816    7.2285 H   0  0  0  0  0  0  0  0  0  0  0  0
  1  2  4  0  0  0  0
  2  3  4  0  0  0  0
  3  4  4  0  0  0  0
  4  5  4  0  0  0  0
  1  6  4  0  0  0  0
  5  6  4  0  0  0  0
  6  7  1  0  0  0  0
  5  8  1  0  0  0  0
  3  9  1  0  0  0  0
  2 10  1  0  0  0  0
 10 11  4  0  0  0  0
 11 12  4  0  0  0  0
 12 13  4  0  0  0  0
 13 14  4  0  0  0  0
 10 15  4  0  0  0  0
 14 15  4  0  0  0  0
 15 16  1  0  0  0  0
 13 17  1  0  0  0  0
 12 18  1  0  0  0  0
  1 19  1  0  0  0  0
 11 19  1  0  0  0  0
 19 20  1  0  0  0  0
 19 21  1  0  0  0  0
 21 22  1  0  0  0  0
 22 23  1  0  0  0  0
 23 24  1  0  0  0  0
 24 25  1  0  0  0  0
 24 26  1  0  0  0  0
 24 27  1  0  0  0  0
 23 28  1  0  0  0  0
 28 29  1  0  0  0  0
 28 30  1  0  0  0  0
 28 31  1  0  0  0  0
 23 32  1  0  0  0  0
 21 33  1  0  0  0  0
 32 33  1  0  0  0  0
 32 34  1  0  0  0  0
 34 35  1  0  0  0  0
 34 36  1  0  0  0  0
 34 37  1  0  0  0  0
 32 38  1  0  0  0  0
 38 39  1  0  0  0  0
 38 40  1  0  0  0  0
 38 41  1  0  0  0  0
 19 42  1  0  0  0  0
 42 43  1  0  0  0  0
 43 44  1  0  0  0  0
 44 45  1  0  0  0  0
 45 46  1  0  0  0  0
 45 47  1  0  0  0  0
 45 48  1  0  0  0  0
 44 49  1  0  0  0  0
 49 50  1  0  0  0  0
 49 51  1  0  0  0  0
 49 52  1  0  0  0  0
 44 53  1  0  0  0  0
 42 54  1  0  0  0  0
 53 54  1  0  0  0  0
 53 55  1  0  0  0  0
 55 56  1  0  0  0  0
 55 57  1  0  0  0  0
 55 58  1  0  0  0  0
 53 59  1  0  0  0  0
 59 60  1  0  0  0  0
 59 61  1  0  0  0  0
 59 62  1  0  0  0  0
 19 63  1  0  0  0  0
 63 64  1  0  0  0  0
 64 65  1  0  0  0  0
 65 66  1  0  0  0  0
 66 67  1  0  0  0  0
 66 68  1  0  0  0  0
 66 69  1  0  0  0  0
 65 70  1  0  0  0  0
 70 71  1  0  0  0  0
 70 72  1  0  0  0  0
 70 73  1  0  0  0  0
 65 74  1  0  0  0  0
 63 75  1  0  0  0  0
 74 75  1  0  0  0  0
 74 76  1  0  0  0  0
 76 77  1  0  0  0  0
 76 78  1  0  0  0  0
 76 79  1  0  0  0  0
 74 80  1  0  0  0  0
 80 81  1  0  0  0  0
 80 82  1  0  0  0  0
 80 83  1  0  0  0  0
  4 84  1  0  0  0  0
 14 85  1  0  0  0  0
 19 86  1  0  0  0  0
 20 86  1  0  0  0  0
 86 87  4  0  0  0  0
 86 88  4  0  0  0  0
 87 89  1  0  0  0  0
 87 90  1  0  0  0  0
 88 91  4  0  0  0  0
 89 91  4  0  0  0  0
 88 92  1  0  0  0  0
 89 93  1  0  0  0  0
 90 94  3  0  0  0  0
 91 95  1  0  0  0  0
 93 96  1  0  0  0  0
 93 97  1  0  0  0  0
 93 98  1  0  0  0  0
 95 99  1  0  0  0  0
 95100  1  0  0  0  0
 95101  1  0  0  0  0
M  END
