
  xtb     01142213223D
 xtb: 6.4.1 (1a32961)
 99107  0     0  0            999 V2000
   -0.9456   -2.0189   -0.3847 N   0  0  0  0  0  0  0  0  0  0  0  0
   -2.1810   -1.5129   -0.5571 C   0  0  0  0  0  0  0  0  0  0  0  0
   -3.0199   -1.9892   -1.5712 C   0  0  0  0  0  0  0  0  0  0  0  0
   -2.5816   -2.9940   -2.4065 C   0  0  0  0  0  0  0  0  0  0  0  0
   -1.3049   -3.5135   -2.2117 C   0  0  0  0  0  0  0  0  0  0  0  0
   -0.5341   -2.9910   -1.1937 C   0  0  0  0  0  0  0  0  0  0  0  0
    0.4628   -3.3626   -1.0033 H   0  0  0  0  0  0  0  0  0  0  0  0
   -0.9227   -4.3018   -2.8394 H   0  0  0  0  0  0  0  0  0  0  0  0
   -4.0019   -1.5696   -1.7146 H   0  0  0  0  0  0  0  0  0  0  0  0
   -2.5725   -0.4430    0.3555 C   0  0  0  0  0  0  0  0  0  0  0  0
   -1.6181    0.0102    1.1956 N   0  0  0  0  0  0  0  0  0  0  0  0
   -1.9238    0.9872    2.0462 C   0  0  0  0  0  0  0  0  0  0  0  0
   -3.1747    1.5667    2.1203 C   0  0  0  0  0  0  0  0  0  0  0  0
   -4.1711    1.1086    1.2631 C   0  0  0  0  0  0  0  0  0  0  0  0
   -3.8630    0.0990    0.3758 C   0  0  0  0  0  0  0  0  0  0  0  0
   -4.6240   -0.2732   -0.2897 H   0  0  0  0  0  0  0  0  0  0  0  0
   -3.3695    2.3500    2.8345 H   0  0  0  0  0  0  0  0  0  0  0  0
   -1.1152    1.3121    2.6828 H   0  0  0  0  0  0  0  0  0  0  0  0
    0.4215   -0.8165    0.9133 Ir  0  0  0  0  0  0  0  0  0  0  0  0
    0.8726   -2.2303    1.5405 H   0  0  0  0  0  0  0  0  0  0  0  0
    0.3803    0.6002   -0.6147 B   0  0  0  0  0  0  0  0  0  0  0  0
   -0.3021    0.3203   -1.7867 O   0  0  0  0  0  0  0  0  0  0  0  0
   -0.4327    1.5100   -2.5718 C   0  0  0  0  0  0  0  0  0  0  0  0
   -0.2474    1.1752   -4.0494 C   0  0  0  0  0  0  0  0  0  0  0  0
    0.6695    0.6164   -4.2050 H   0  0  0  0  0  0  0  0  0  0  0  0
   -0.2246    2.0875   -4.6396 H   0  0  0  0  0  0  0  0  0  0  0  0
   -1.0806    0.5612   -4.3833 H   0  0  0  0  0  0  0  0  0  0  0  0
   -1.8565    2.0402   -2.3472 C   0  0  0  0  0  0  0  0  0  0  0  0
   -2.0471    2.9226   -2.9507 H   0  0  0  0  0  0  0  0  0  0  0  0
   -2.5651    1.2616   -2.6231 H   0  0  0  0  0  0  0  0  0  0  0  0
   -2.0063    2.2753   -1.2951 H   0  0  0  0  0  0  0  0  0  0  0  0
    0.6628    2.4419   -1.9589 C   0  0  0  0  0  0  0  0  0  0  0  0
    0.8264    1.9005   -0.6409 O   0  0  0  0  0  0  0  0  0  0  0  0
    2.0165    2.2978   -2.6647 C   0  0  0  0  0  0  0  0  0  0  0  0
    2.3132    1.2516   -2.6554 H   0  0  0  0  0  0  0  0  0  0  0  0
    1.9768    2.6762   -3.6821 H   0  0  0  0  0  0  0  0  0  0  0  0
    2.7616    2.8585   -2.1054 H   0  0  0  0  0  0  0  0  0  0  0  0
    0.2820    3.9185   -1.8757 C   0  0  0  0  0  0  0  0  0  0  0  0
   -0.5692    4.0699   -1.2191 H   0  0  0  0  0  0  0  0  0  0  0  0
    1.1223    4.4812   -1.4761 H   0  0  0  0  0  0  0  0  0  0  0  0
    0.0470    4.2980   -2.8669 H   0  0  0  0  0  0  0  0  0  0  0  0
    1.5752    0.6434    1.8586 B   0  0  0  0  0  0  0  0  0  0  0  0
    2.9383    0.7987    1.8514 O   0  0  0  0  0  0  0  0  0  0  0  0
    3.2866    2.0823    2.3927 C   0  0  0  0  0  0  0  0  0  0  0  0
    4.5545    1.9653    3.2363 C   0  0  0  0  0  0  0  0  0  0  0  0
    4.4591    1.1818    3.9806 H   0  0  0  0  0  0  0  0  0  0  0  0
    5.3920    1.7172    2.5894 H   0  0  0  0  0  0  0  0  0  0  0  0
    4.7620    2.9115    3.7287 H   0  0  0  0  0  0  0  0  0  0  0  0
    3.5494    3.0022    1.1945 C   0  0  0  0  0  0  0  0  0  0  0  0
    3.8086    4.0077    1.5122 H   0  0  0  0  0  0  0  0  0  0  0  0
    4.3727    2.5902    0.6154 H   0  0  0  0  0  0  0  0  0  0  0  0
    2.6676    3.0145    0.5591 H   0  0  0  0  0  0  0  0  0  0  0  0
    1.9972    2.4795    3.1889 C   0  0  0  0  0  0  0  0  0  0  0  0
    0.9903    1.6530    2.5881 O   0  0  0  0  0  0  0  0  0  0  0  0
    1.5888    3.9458    3.0608 C   0  0  0  0  0  0  0  0  0  0  0  0
    1.3402    4.1843    2.0321 H   0  0  0  0  0  0  0  0  0  0  0  0
    0.7102    4.1258    3.6753 H   0  0  0  0  0  0  0  0  0  0  0  0
    2.3932    4.5908    3.4037 H   0  0  0  0  0  0  0  0  0  0  0  0
    2.0673    2.0999    4.6735 C   0  0  0  0  0  0  0  0  0  0  0  0
    2.3074    1.0454    4.7760 H   0  0  0  0  0  0  0  0  0  0  0  0
    2.8039    2.7014    5.1972 H   0  0  0  0  0  0  0  0  0  0  0  0
    1.0917    2.2645    5.1248 H   0  0  0  0  0  0  0  0  0  0  0  0
    2.2782   -1.3309    0.1741 B   0  0  0  0  0  0  0  0  0  0  0  0
    3.1103   -2.2918    0.7035 O   0  0  0  0  0  0  0  0  0  0  0  0
    4.3952   -2.2441    0.0689 C   0  0  0  0  0  0  0  0  0  0  0  0
    5.3343   -1.5238    1.0422 C   0  0  0  0  0  0  0  0  0  0  0  0
    4.9057   -0.5582    1.2948 H   0  0  0  0  0  0  0  0  0  0  0  0
    5.3983   -2.1105    1.9550 H   0  0  0  0  0  0  0  0  0  0  0  0
    6.3297   -1.4075    0.6250 H   0  0  0  0  0  0  0  0  0  0  0  0
    4.9005   -3.6683   -0.1619 C   0  0  0  0  0  0  0  0  0  0  0  0
    5.0383   -4.1500    0.8025 H   0  0  0  0  0  0  0  0  0  0  0  0
    5.8524   -3.6472   -0.6848 H   0  0  0  0  0  0  0  0  0  0  0  0
    4.1871   -4.2549   -0.7310 H   0  0  0  0  0  0  0  0  0  0  0  0
    4.1097   -1.4195   -1.2370 C   0  0  0  0  0  0  0  0  0  0  0  0
    2.8510   -0.7900   -0.9520 O   0  0  0  0  0  0  0  0  0  0  0  0
    5.1432   -0.3392   -1.5515 C   0  0  0  0  0  0  0  0  0  0  0  0
    6.1269   -0.7815   -1.6810 H   0  0  0  0  0  0  0  0  0  0  0  0
    4.8600    0.1654   -2.4719 H   0  0  0  0  0  0  0  0  0  0  0  0
    5.1708    0.3979   -0.7567 H   0  0  0  0  0  0  0  0  0  0  0  0
    3.9078   -2.2966   -2.4800 C   0  0  0  0  0  0  0  0  0  0  0  0
    3.1384   -3.0409   -2.2952 H   0  0  0  0  0  0  0  0  0  0  0  0
    3.5735   -1.6653   -3.2997 H   0  0  0  0  0  0  0  0  0  0  0  0
    4.8334   -2.7863   -2.7667 H   0  0  0  0  0  0  0  0  0  0  0  0
   -3.2159   -3.3673   -3.1959 H   0  0  0  0  0  0  0  0  0  0  0  0
   -5.1641    1.5307    1.2916 H   0  0  0  0  0  0  0  0  0  0  0  0
    0.2359   -1.6814    2.9603 C   0  0  0  0  0  0  0  0  0  0  0  0
   -1.0185   -2.0733    3.3585 N   0  0  0  0  0  0  0  0  0  0  0  0
    1.0409   -1.5983    4.0726 C   0  0  0  0  0  0  0  0  0  0  0  0
   -1.0569   -2.1926    4.7180 C   0  0  0  0  0  0  0  0  0  0  0  0
   -1.7972   -2.2330    2.7433 H   0  0  0  0  0  0  0  0  0  0  0  0
    0.2477   -1.8943    5.2063 C   0  0  0  0  0  0  0  0  0  0  0  0
    2.0838   -1.3542    4.0648 H   0  0  0  0  0  0  0  0  0  0  0  0
   -2.0691   -2.5270    5.6023 C   0  0  0  0  0  0  0  0  0  0  0  0
    0.4519   -1.9633    6.5875 C   0  0  0  0  0  0  0  0  0  0  0  0
   -1.8531   -2.5823    6.9045 N   0  0  0  0  0  0  0  0  0  0  0  0
   -3.0760   -2.7590    5.2755 H   0  0  0  0  0  0  0  0  0  0  0  0
   -0.6296   -2.3092    7.3688 C   0  0  0  0  0  0  0  0  0  0  0  0
    1.4154   -1.7540    7.0266 H   0  0  0  0  0  0  0  0  0  0  0  0
   -0.5360   -2.3790    8.4457 H   0  0  0  0  0  0  0  0  0  0  0  0
  1  2  4  0  0  0  0
  2  3  4  0  0  0  0
  3  4  4  0  0  0  0
  4  5  4  0  0  0  0
  1  6  4  0  0  0  0
  5  6  4  0  0  0  0
  6  7  1  0  0  0  0
  5  8  1  0  0  0  0
  3  9  1  0  0  0  0
  2 10  1  0  0  0  0
 10 11  4  0  0  0  0
 11 12  4  0  0  0  0
 12 13  4  0  0  0  0
 13 14  4  0  0  0  0
 10 15  4  0  0  0  0
 14 15  4  0  0  0  0
 15 16  1  0  0  0  0
 13 17  1  0  0  0  0
 12 18  1  0  0  0  0
  1 19  1  0  0  0  0
 11 19  1  0  0  0  0
 19 20  1  0  0  0  0
 19 21  1  0  0  0  0
 21 22  1  0  0  0  0
 22 23  1  0  0  0  0
 23 24  1  0  0  0  0
 24 25  1  0  0  0  0
 24 26  1  0  0  0  0
 24 27  1  0  0  0  0
 23 28  1  0  0  0  0
 28 29  1  0  0  0  0
 28 30  1  0  0  0  0
 28 31  1  0  0  0  0
 23 32  1  0  0  0  0
 21 33  1  0  0  0  0
 32 33  1  0  0  0  0
 32 34  1  0  0  0  0
 34 35  1  0  0  0  0
 34 36  1  0  0  0  0
 34 37  1  0  0  0  0
 32 38  1  0  0  0  0
 38 39  1  0  0  0  0
 38 40  1  0  0  0  0
 38 41  1  0  0  0  0
 19 42  1  0  0  0  0
 42 43  1  0  0  0  0
 43 44  1  0  0  0  0
 44 45  1  0  0  0  0
 45 46  1  0  0  0  0
 45 47  1  0  0  0  0
 45 48  1  0  0  0  0
 44 49  1  0  0  0  0
 49 50  1  0  0  0  0
 49 51  1  0  0  0  0
 49 52  1  0  0  0  0
 44 53  1  0  0  0  0
 42 54  1  0  0  0  0
 53 54  1  0  0  0  0
 53 55  1  0  0  0  0
 55 56  1  0  0  0  0
 55 57  1  0  0  0  0
 55 58  1  0  0  0  0
 53 59  1  0  0  0  0
 59 60  1  0  0  0  0
 59 61  1  0  0  0  0
 59 62  1  0  0  0  0
 19 63  1  0  0  0  0
 63 64  1  0  0  0  0
 64 65  1  0  0  0  0
 65 66  1  0  0  0  0
 66 67  1  0  0  0  0
 66 68  1  0  0  0  0
 66 69  1  0  0  0  0
 65 70  1  0  0  0  0
 70 71  1  0  0  0  0
 70 72  1  0  0  0  0
 70 73  1  0  0  0  0
 65 74  1  0  0  0  0
 63 75  1  0  0  0  0
 74 75  1  0  0  0  0
 74 76  1  0  0  0  0
 76 77  1  0  0  0  0
 76 78  1  0  0  0  0
 76 79  1  0  0  0  0
 74 80  1  0  0  0  0
 80 81  1  0  0  0  0
 80 82  1  0  0  0  0
 80 83  1  0  0  0  0
  4 84  1  0  0  0  0
 14 85  1  0  0  0  0
 19 86  1  0  0  0  0
 20 86  1  0  0  0  0
 86 87  1  0  0  0  0
 86 88  2  0  0  0  0
 87 89  1  0  0  0  0
 87 90  1  0  0  0  0
 88 91  4  0  0  0  0
 89 91  4  0  0  0  0
 88 92  1  0  0  0  0
 89 93  4  0  0  0  0
 91 94  4  0  0  0  0
 93 95  4  0  0  0  0
 93 96  1  0  0  0  0
 94 97  4  0  0  0  0
 95 97  4  0  0  0  0
 94 98  1  0  0  0  0
 97 99  1  0  0  0  0
M  END
