
  xtb     01142213413D
 xtb: 6.4.1 (1a32961)
 93100  0     0  0            999 V2000
   -0.9323   -2.0425   -0.3304 N   0  0  0  0  0  0  0  0  0  0  0  0
   -2.1922   -1.5872   -0.4567 C   0  0  0  0  0  0  0  0  0  0  0  0
   -3.0719   -2.1533   -1.3875 C   0  0  0  0  0  0  0  0  0  0  0  0
   -2.6521   -3.1993   -2.1802 C   0  0  0  0  0  0  0  0  0  0  0  0
   -1.3500   -3.6684   -2.0286 C   0  0  0  0  0  0  0  0  0  0  0  0
   -0.5379   -3.0547   -1.0979 C   0  0  0  0  0  0  0  0  0  0  0  0
    0.4811   -3.3824   -0.9471 H   0  0  0  0  0  0  0  0  0  0  0  0
   -0.9801   -4.4885   -2.6222 H   0  0  0  0  0  0  0  0  0  0  0  0
   -4.0742   -1.7734   -1.4973 H   0  0  0  0  0  0  0  0  0  0  0  0
   -2.5690   -0.4814    0.4171 C   0  0  0  0  0  0  0  0  0  0  0  0
   -1.5936    0.0332    1.1931 N   0  0  0  0  0  0  0  0  0  0  0  0
   -1.8903    1.0401    2.0098 C   0  0  0  0  0  0  0  0  0  0  0  0
   -3.1519    1.5917    2.1126 C   0  0  0  0  0  0  0  0  0  0  0  0
   -4.1697    1.0734    1.3177 C   0  0  0  0  0  0  0  0  0  0  0  0
   -3.8706    0.0325    0.4647 C   0  0  0  0  0  0  0  0  0  0  0  0
   -4.6472   -0.3857   -0.1538 H   0  0  0  0  0  0  0  0  0  0  0  0
   -3.3369    2.4014    2.7998 H   0  0  0  0  0  0  0  0  0  0  0  0
   -1.0649    1.4164    2.5946 H   0  0  0  0  0  0  0  0  0  0  0  0
    0.4215   -0.8165    0.9133 Ir  0  0  0  0  0  0  0  0  0  0  0  0
    0.8726   -2.2303    1.5405 H   0  0  0  0  0  0  0  0  0  0  0  0
    0.4233    0.5438   -0.6618 B   0  0  0  0  0  0  0  0  0  0  0  0
   -0.1507    0.1936   -1.8706 O   0  0  0  0  0  0  0  0  0  0  0  0
   -0.2193    1.3344   -2.7323 C   0  0  0  0  0  0  0  0  0  0  0  0
    0.1374    0.9198   -4.1578 C   0  0  0  0  0  0  0  0  0  0  0  0
    1.0826    0.3875   -4.1756 H   0  0  0  0  0  0  0  0  0  0  0  0
    0.1962    1.7948   -4.7999 H   0  0  0  0  0  0  0  0  0  0  0  0
   -0.6340    0.2548   -4.5388 H   0  0  0  0  0  0  0  0  0  0  0  0
   -1.6712    1.8332   -2.6983 C   0  0  0  0  0  0  0  0  0  0  0  0
   -1.8119    2.6810   -3.3623 H   0  0  0  0  0  0  0  0  0  0  0  0
   -2.3244    1.0222   -3.0145 H   0  0  0  0  0  0  0  0  0  0  0  0
   -1.9463    2.1107   -1.6827 H   0  0  0  0  0  0  0  0  0  0  0  0
    0.7834    2.3311   -2.0614 C   0  0  0  0  0  0  0  0  0  0  0  0
    0.8423    1.8532   -0.7104 O   0  0  0  0  0  0  0  0  0  0  0  0
    2.2019    2.2101   -2.6319 C   0  0  0  0  0  0  0  0  0  0  0  0
    2.5385    1.1817   -2.5260 H   0  0  0  0  0  0  0  0  0  0  0  0
    2.2418    2.5239   -3.6710 H   0  0  0  0  0  0  0  0  0  0  0  0
    2.8681    2.8390   -2.0460 H   0  0  0  0  0  0  0  0  0  0  0  0
    0.3491    3.7955   -2.0793 C   0  0  0  0  0  0  0  0  0  0  0  0
   -0.5739    3.9411   -1.5268 H   0  0  0  0  0  0  0  0  0  0  0  0
    1.1219    4.4006   -1.6115 H   0  0  0  0  0  0  0  0  0  0  0  0
    0.2150    4.1305   -3.1046 H   0  0  0  0  0  0  0  0  0  0  0  0
    1.5848    0.6349    1.8660 B   0  0  0  0  0  0  0  0  0  0  0  0
    2.9555    0.7281    1.9187 O   0  0  0  0  0  0  0  0  0  0  0  0
    3.3394    2.0188    2.4160 C   0  0  0  0  0  0  0  0  0  0  0  0
    4.5698    1.8877    3.3115 C   0  0  0  0  0  0  0  0  0  0  0  0
    4.4126    1.1437    4.0852 H   0  0  0  0  0  0  0  0  0  0  0  0
    5.4180    1.5740    2.7086 H   0  0  0  0  0  0  0  0  0  0  0  0
    4.8013    2.8459    3.7690 H   0  0  0  0  0  0  0  0  0  0  0  0
    3.6824    2.8717    1.1887 C   0  0  0  0  0  0  0  0  0  0  0  0
    3.9752    3.8787    1.4705 H   0  0  0  0  0  0  0  0  0  0  0  0
    4.5043    2.3989    0.6561 H   0  0  0  0  0  0  0  0  0  0  0  0
    2.8225    2.8921    0.5240 H   0  0  0  0  0  0  0  0  0  0  0  0
    2.0404    2.5052    3.1427 C   0  0  0  0  0  0  0  0  0  0  0  0
    1.0220    1.6994    2.5345 O   0  0  0  0  0  0  0  0  0  0  0  0
    1.7038    3.9812    2.9393 C   0  0  0  0  0  0  0  0  0  0  0  0
    1.5055    4.1854    1.8926 H   0  0  0  0  0  0  0  0  0  0  0  0
    0.8106    4.2253    3.5092 H   0  0  0  0  0  0  0  0  0  0  0  0
    2.5231    4.6043    3.2876 H   0  0  0  0  0  0  0  0  0  0  0  0
    2.0358    2.1847    4.6429 C   0  0  0  0  0  0  0  0  0  0  0  0
    2.2311    1.1269    4.7961 H   0  0  0  0  0  0  0  0  0  0  0  0
    2.7733    2.7803    5.1723 H   0  0  0  0  0  0  0  0  0  0  0  0
    1.0494    2.4043    5.0448 H   0  0  0  0  0  0  0  0  0  0  0  0
    2.2782   -1.3309    0.1741 B   0  0  0  0  0  0  0  0  0  0  0  0
    3.0534   -2.3609    0.6693 O   0  0  0  0  0  0  0  0  0  0  0  0
    4.3598   -2.3295    0.0801 C   0  0  0  0  0  0  0  0  0  0  0  0
    5.2861   -1.6748    1.1106 C   0  0  0  0  0  0  0  0  0  0  0  0
    4.8799   -0.7039    1.3800 H   0  0  0  0  0  0  0  0  0  0  0  0
    5.2961   -2.2926    2.0050 H   0  0  0  0  0  0  0  0  0  0  0  0
    6.2997   -1.5794    0.7335 H   0  0  0  0  0  0  0  0  0  0  0  0
    4.8319   -3.7572   -0.1935 C   0  0  0  0  0  0  0  0  0  0  0  0
    4.9305   -4.2798    0.7543 H   0  0  0  0  0  0  0  0  0  0  0  0
    5.7977   -3.7426   -0.6906 H   0  0  0  0  0  0  0  0  0  0  0  0
    4.1180   -4.3001   -0.8037 H   0  0  0  0  0  0  0  0  0  0  0  0
    4.1405   -1.4443   -1.1959 C   0  0  0  0  0  0  0  0  0  0  0  0
    2.9162   -0.7545   -0.8997 O   0  0  0  0  0  0  0  0  0  0  0  0
    5.2423   -0.4208   -1.4632 C   0  0  0  0  0  0  0  0  0  0  0  0
    6.1991   -0.9204   -1.5876 H   0  0  0  0  0  0  0  0  0  0  0  0
    5.0091    0.1249   -2.3739 H   0  0  0  0  0  0  0  0  0  0  0  0
    5.3014    0.2910   -0.6474 H   0  0  0  0  0  0  0  0  0  0  0  0
    3.8987   -2.2668   -2.4690 C   0  0  0  0  0  0  0  0  0  0  0  0
    3.0881   -2.9727   -2.3106 H   0  0  0  0  0  0  0  0  0  0  0  0
    3.6022   -1.5910   -3.2677 H   0  0  0  0  0  0  0  0  0  0  0  0
    4.7976   -2.7966   -2.7691 H   0  0  0  0  0  0  0  0  0  0  0  0
   -3.3194   -3.6428   -2.9035 H   0  0  0  0  0  0  0  0  0  0  0  0
   -5.1712    1.4733    1.3671 H   0  0  0  0  0  0  0  0  0  0  0  0
    0.2359   -1.6814    2.9603 C   0  0  0  0  0  0  0  0  0  0  0  0
   -1.0425   -2.0364    3.2501 O   0  0  0  0  0  0  0  0  0  0  0  0
    0.9572   -1.6317    4.1228 C   0  0  0  0  0  0  0  0  0  0  0  0
   -1.1416   -2.1695    4.5918 C   0  0  0  0  0  0  0  0  0  0  0  0
    0.0598   -1.9284    5.1797 C   0  0  0  0  0  0  0  0  0  0  0  0
    2.0004   -1.4054    4.2015 H   0  0  0  0  0  0  0  0  0  0  0  0
   -2.1036   -2.4280    4.9893 H   0  0  0  0  0  0  0  0  0  0  0  0
    0.2828   -1.9647    6.2272 H   0  0  0  0  0  0  0  0  0  0  0  0
  1  2  4  0  0  0  0
  2  3  4  0  0  0  0
  3  4  4  0  0  0  0
  4  5  4  0  0  0  0
  1  6  4  0  0  0  0
  5  6  4  0  0  0  0
  6  7  1  0  0  0  0
  5  8  1  0  0  0  0
  3  9  1  0  0  0  0
  2 10  1  0  0  0  0
 10 11  4  0  0  0  0
 11 12  4  0  0  0  0
 12 13  4  0  0  0  0
 13 14  4  0  0  0  0
 10 15  4  0  0  0  0
 14 15  4  0  0  0  0
 15 16  1  0  0  0  0
 13 17  1  0  0  0  0
 12 18  1  0  0  0  0
  1 19  1  0  0  0  0
 11 19  1  0  0  0  0
 19 20  1  0  0  0  0
 19 21  1  0  0  0  0
 21 22  1  0  0  0  0
 22 23  1  0  0  0  0
 23 24  1  0  0  0  0
 24 25  1  0  0  0  0
 24 26  1  0  0  0  0
 24 27  1  0  0  0  0
 23 28  1  0  0  0  0
 28 29  1  0  0  0  0
 28 30  1  0  0  0  0
 28 31  1  0  0  0  0
 23 32  1  0  0  0  0
 21 33  1  0  0  0  0
 32 33  1  0  0  0  0
 32 34  1  0  0  0  0
 34 35  1  0  0  0  0
 34 36  1  0  0  0  0
 34 37  1  0  0  0  0
 32 38  1  0  0  0  0
 38 39  1  0  0  0  0
 38 40  1  0  0  0  0
 38 41  1  0  0  0  0
 19 42  1  0  0  0  0
 42 43  1  0  0  0  0
 43 44  1  0  0  0  0
 44 45  1  0  0  0  0
 45 46  1  0  0  0  0
 45 47  1  0  0  0  0
 45 48  1  0  0  0  0
 44 49  1  0  0  0  0
 49 50  1  0  0  0  0
 49 51  1  0  0  0  0
 49 52  1  0  0  0  0
 44 53  1  0  0  0  0
 42 54  1  0  0  0  0
 53 54  1  0  0  0  0
 53 55  1  0  0  0  0
 55 56  1  0  0  0  0
 55 57  1  0  0  0  0
 55 58  1  0  0  0  0
 53 59  1  0  0  0  0
 59 60  1  0  0  0  0
 59 61  1  0  0  0  0
 59 62  1  0  0  0  0
 19 63  1  0  0  0  0
 63 64  1  0  0  0  0
 64 65  1  0  0  0  0
 65 66  1  0  0  0  0
 66 67  1  0  0  0  0
 66 68  1  0  0  0  0
 66 69  1  0  0  0  0
 65 70  1  0  0  0  0
 70 71  1  0  0  0  0
 70 72  1  0  0  0  0
 70 73  1  0  0  0  0
 65 74  1  0  0  0  0
 63 75  1  0  0  0  0
 74 75  1  0  0  0  0
 74 76  1  0  0  0  0
 76 77  1  0  0  0  0
 76 78  1  0  0  0  0
 76 79  1  0  0  0  0
 74 80  1  0  0  0  0
 80 81  1  0  0  0  0
 80 82  1  0  0  0  0
 80 83  1  0  0  0  0
  4 84  1  0  0  0  0
 14 85  1  0  0  0  0
 19 86  1  0  0  0  0
 20 86  1  0  0  0  0
 86 87  1  0  0  0  0
 86 88  2  0  0  0  0
 87 89  1  0  0  0  0
 88 90  4  0  0  0  0
 89 90  2  0  0  0  0
 88 91  1  0  0  0  0
 89 92  1  0  0  0  0
 90 93  1  0  0  0  0
M  END
