   15
Created with kallisto
C      2.1428    0.7228   -0.0166
C      2.1829   -0.6702   -0.0083
C      0.9247    1.4095   -0.0182
C      1.0000   -1.4185   -0.0026
H      3.1416   -1.1832   -0.0077
C     -0.2486    0.6459   -0.0158
H      0.8976    2.4941   -0.0236
C     -0.2388   -0.7492   -0.0092
H      1.0391   -2.5035    0.0039
N     -1.5675    1.0408   -0.0202
C     -1.5953   -1.1778   -0.0136
C     -2.3905   -0.0543   -0.0247
H     -1.8764    2.0029   -0.0239
H     -1.9481   -2.2005   -0.0128
H     -3.4659    0.0597   -0.0355
