
  xtb     01142214163D
 xtb: 6.4.1 (1a32961)
100108  0     0  0            999 V2000
   -0.9081   -2.0121   -0.3817 N   0  0  0  0  0  0  0  0  0  0  0  0
   -2.1685   -1.5565   -0.5236 C   0  0  0  0  0  0  0  0  0  0  0  0
   -3.0472   -2.1477   -1.4417 C   0  0  0  0  0  0  0  0  0  0  0  0
   -2.6212   -3.1996   -2.2212 C   0  0  0  0  0  0  0  0  0  0  0  0
   -1.3124   -3.6542   -2.0689 C   0  0  0  0  0  0  0  0  0  0  0  0
   -0.5081   -3.0297   -1.1400 C   0  0  0  0  0  0  0  0  0  0  0  0
    0.5110   -3.3532   -0.9811 H   0  0  0  0  0  0  0  0  0  0  0  0
   -0.9359   -4.4752   -2.6572 H   0  0  0  0  0  0  0  0  0  0  0  0
   -4.0569   -1.7856   -1.5455 H   0  0  0  0  0  0  0  0  0  0  0  0
   -2.5434   -0.4295    0.3179 C   0  0  0  0  0  0  0  0  0  0  0  0
   -1.5935    0.0370    1.1581 N   0  0  0  0  0  0  0  0  0  0  0  0
   -1.8945    1.0595    1.9558 C   0  0  0  0  0  0  0  0  0  0  0  0
   -3.1260    1.6802    1.9686 C   0  0  0  0  0  0  0  0  0  0  0  0
   -4.1110    1.2226    1.0957 C   0  0  0  0  0  0  0  0  0  0  0  0
   -3.8116    0.1640    0.2670 C   0  0  0  0  0  0  0  0  0  0  0  0
   -4.5600   -0.2018   -0.4164 H   0  0  0  0  0  0  0  0  0  0  0  0
   -3.3168    2.4984    2.6442 H   0  0  0  0  0  0  0  0  0  0  0  0
   -1.0955    1.3868    2.6030 H   0  0  0  0  0  0  0  0  0  0  0  0
    0.4215   -0.8165    0.9133 Ir  0  0  0  0  0  0  0  0  0  0  0  0
    0.8726   -2.2303    1.5405 H   0  0  0  0  0  0  0  0  0  0  0  0
    0.3812    0.6438   -0.5807 B   0  0  0  0  0  0  0  0  0  0  0  0
   -0.2941    0.3902   -1.7634 O   0  0  0  0  0  0  0  0  0  0  0  0
   -0.4099    1.5936   -2.5289 C   0  0  0  0  0  0  0  0  0  0  0  0
   -0.2157    1.2847   -4.0112 C   0  0  0  0  0  0  0  0  0  0  0  0
    0.6961    0.7182   -4.1692 H   0  0  0  0  0  0  0  0  0  0  0  0
   -0.1771    2.2083   -4.5832 H   0  0  0  0  0  0  0  0  0  0  0  0
   -1.0526    0.6871   -4.3650 H   0  0  0  0  0  0  0  0  0  0  0  0
   -1.8305    2.1333   -2.3062 C   0  0  0  0  0  0  0  0  0  0  0  0
   -2.0106    3.0242   -2.9006 H   0  0  0  0  0  0  0  0  0  0  0  0
   -2.5443    1.3637   -2.5942 H   0  0  0  0  0  0  0  0  0  0  0  0
   -1.9846    2.3569   -1.2523 H   0  0  0  0  0  0  0  0  0  0  0  0
    0.6879    2.5064   -1.8929 C   0  0  0  0  0  0  0  0  0  0  0  0
    0.8343    1.9448   -0.5822 O   0  0  0  0  0  0  0  0  0  0  0  0
    2.0470    2.3596   -2.5886 C   0  0  0  0  0  0  0  0  0  0  0  0
    2.3320    1.3102   -2.5935 H   0  0  0  0  0  0  0  0  0  0  0  0
    2.0219    2.7552   -3.6001 H   0  0  0  0  0  0  0  0  0  0  0  0
    2.7926    2.9027   -2.0125 H   0  0  0  0  0  0  0  0  0  0  0  0
    0.3209    3.9856   -1.7928 C   0  0  0  0  0  0  0  0  0  0  0  0
   -0.5339    4.1359   -1.1408 H   0  0  0  0  0  0  0  0  0  0  0  0
    1.1635    4.5345   -1.3791 H   0  0  0  0  0  0  0  0  0  0  0  0
    0.0971    4.3806   -2.7807 H   0  0  0  0  0  0  0  0  0  0  0  0
    1.5697    0.6367    1.8791 B   0  0  0  0  0  0  0  0  0  0  0  0
    2.9403    0.7794    1.8775 O   0  0  0  0  0  0  0  0  0  0  0  0
    3.3019    2.0490    2.4397 C   0  0  0  0  0  0  0  0  0  0  0  0
    4.5770    1.9088    3.2697 C   0  0  0  0  0  0  0  0  0  0  0  0
    4.4860    1.1070    3.9943 H   0  0  0  0  0  0  0  0  0  0  0  0
    5.4087    1.6757    2.6097 H   0  0  0  0  0  0  0  0  0  0  0  0
    4.7904    2.8421    3.7839 H   0  0  0  0  0  0  0  0  0  0  0  0
    3.5597    2.9940    1.2602 C   0  0  0  0  0  0  0  0  0  0  0  0
    3.8304    3.9902    1.5978 H   0  0  0  0  0  0  0  0  0  0  0  0
    4.3728    2.5889    0.6619 H   0  0  0  0  0  0  0  0  0  0  0  0
    2.6707    3.0276    0.6356 H   0  0  0  0  0  0  0  0  0  0  0  0
    2.0225    2.4368    3.2544 C   0  0  0  0  0  0  0  0  0  0  0  0
    1.0042    1.6417    2.6342 O   0  0  0  0  0  0  0  0  0  0  0  0
    1.6325    3.9115    3.1785 C   0  0  0  0  0  0  0  0  0  0  0  0
    1.3839    4.1892    2.1597 H   0  0  0  0  0  0  0  0  0  0  0  0
    0.7573    4.0800    3.8012 H   0  0  0  0  0  0  0  0  0  0  0  0
    2.4459    4.5344    3.5412 H   0  0  0  0  0  0  0  0  0  0  0  0
    2.0971    2.0062    4.7250 C   0  0  0  0  0  0  0  0  0  0  0  0
    2.3310    0.9473    4.7843 H   0  0  0  0  0  0  0  0  0  0  0  0
    2.8382    2.5861    5.2667 H   0  0  0  0  0  0  0  0  0  0  0  0
    1.1227    2.1577    5.1834 H   0  0  0  0  0  0  0  0  0  0  0  0
    2.2782   -1.3309    0.1741 B   0  0  0  0  0  0  0  0  0  0  0  0
    3.1211   -2.2929    0.6914 O   0  0  0  0  0  0  0  0  0  0  0  0
    4.3985   -2.2420    0.0445 C   0  0  0  0  0  0  0  0  0  0  0  0
    5.3490   -1.5322    1.0150 C   0  0  0  0  0  0  0  0  0  0  0  0
    4.9229   -0.5693    1.2816 H   0  0  0  0  0  0  0  0  0  0  0  0
    5.4235   -2.1296    1.9203 H   0  0  0  0  0  0  0  0  0  0  0  0
    6.3397   -1.4111    0.5881 H   0  0  0  0  0  0  0  0  0  0  0  0
    4.8993   -3.6652   -0.2042 C   0  0  0  0  0  0  0  0  0  0  0  0
    5.0458   -4.1568    0.7539 H   0  0  0  0  0  0  0  0  0  0  0  0
    5.8457   -3.6410   -0.7371 H   0  0  0  0  0  0  0  0  0  0  0  0
    4.1786   -4.2447   -0.7714 H   0  0  0  0  0  0  0  0  0  0  0  0
    4.1024   -1.4063   -1.2517 C   0  0  0  0  0  0  0  0  0  0  0  0
    2.8463   -0.7811   -0.9527 O   0  0  0  0  0  0  0  0  0  0  0  0
    5.1341   -0.3229   -1.5639 C   0  0  0  0  0  0  0  0  0  0  0  0
    6.1173   -0.7636   -1.7033 H   0  0  0  0  0  0  0  0  0  0  0  0
    4.8452    0.1892   -2.4784 H   0  0  0  0  0  0  0  0  0  0  0  0
    5.1659    0.4082   -0.7636 H   0  0  0  0  0  0  0  0  0  0  0  0
    3.8937   -2.2722   -2.5018 C   0  0  0  0  0  0  0  0  0  0  0  0
    3.1240   -3.0171   -2.3200 H   0  0  0  0  0  0  0  0  0  0  0  0
    3.5546   -1.6330   -3.3135 H   0  0  0  0  0  0  0  0  0  0  0  0
    4.8171   -2.7602   -2.7987 H   0  0  0  0  0  0  0  0  0  0  0  0
   -3.2874   -3.6606   -2.9347 H   0  0  0  0  0  0  0  0  0  0  0  0
   -5.0866    1.6844    1.0683 H   0  0  0  0  0  0  0  0  0  0  0  0
    0.2359   -1.6814    2.9603 C   0  0  0  0  0  0  0  0  0  0  0  0
   -1.0666   -2.0607    3.3301 C   0  0  0  0  0  0  0  0  0  0  0  0
    1.2138   -1.5698    3.9354 C   0  0  0  0  0  0  0  0  0  0  0  0
   -1.4370   -2.2313    4.6460 C   0  0  0  0  0  0  0  0  0  0  0  0
   -1.8113   -2.2328    2.5645 H   0  0  0  0  0  0  0  0  0  0  0  0
    0.8504   -1.7477    5.2653 C   0  0  0  0  0  0  0  0  0  0  0  0
    2.2351   -1.3578    3.6579 H   0  0  0  0  0  0  0  0  0  0  0  0
   -0.4766   -2.0673    5.6443 C   0  0  0  0  0  0  0  0  0  0  0  0
   -2.4514   -2.5061    4.9023 H   0  0  0  0  0  0  0  0  0  0  0  0
    1.5995   -1.6874    6.4071 N   0  0  0  0  0  0  0  0  0  0  0  0
   -0.4775   -2.1906    7.0627 C   0  0  0  0  0  0  0  0  0  0  0  0
    0.7967   -1.9561    7.4814 C   0  0  0  0  0  0  0  0  0  0  0  0
    2.5870   -1.5052    6.4495 H   0  0  0  0  0  0  0  0  0  0  0  0
   -1.3216   -2.4271    7.6806 H   0  0  0  0  0  0  0  0  0  0  0  0
    1.1975   -1.9599    8.4771 H   0  0  0  0  0  0  0  0  0  0  0  0
  1  2  4  0  0  0  0
  2  3  4  0  0  0  0
  3  4  4  0  0  0  0
  4  5  4  0  0  0  0
  1  6  4  0  0  0  0
  5  6  4  0  0  0  0
  6  7  1  0  0  0  0
  5  8  1  0  0  0  0
  3  9  1  0  0  0  0
  2 10  1  0  0  0  0
 10 11  4  0  0  0  0
 11 12  4  0  0  0  0
 12 13  4  0  0  0  0
 13 14  4  0  0  0  0
 10 15  4  0  0  0  0
 14 15  4  0  0  0  0
 15 16  1  0  0  0  0
 13 17  1  0  0  0  0
 12 18  1  0  0  0  0
  1 19  1  0  0  0  0
 11 19  1  0  0  0  0
 19 20  1  0  0  0  0
 19 21  1  0  0  0  0
 21 22  1  0  0  0  0
 22 23  1  0  0  0  0
 23 24  1  0  0  0  0
 24 25  1  0  0  0  0
 24 26  1  0  0  0  0
 24 27  1  0  0  0  0
 23 28  1  0  0  0  0
 28 29  1  0  0  0  0
 28 30  1  0  0  0  0
 28 31  1  0  0  0  0
 23 32  1  0  0  0  0
 21 33  1  0  0  0  0
 32 33  1  0  0  0  0
 32 34  1  0  0  0  0
 34 35  1  0  0  0  0
 34 36  1  0  0  0  0
 34 37  1  0  0  0  0
 32 38  1  0  0  0  0
 38 39  1  0  0  0  0
 38 40  1  0  0  0  0
 38 41  1  0  0  0  0
 19 42  1  0  0  0  0
 42 43  1  0  0  0  0
 43 44  1  0  0  0  0
 44 45  1  0  0  0  0
 45 46  1  0  0  0  0
 45 47  1  0  0  0  0
 45 48  1  0  0  0  0
 44 49  1  0  0  0  0
 49 50  1  0  0  0  0
 49 51  1  0  0  0  0
 49 52  1  0  0  0  0
 44 53  1  0  0  0  0
 42 54  1  0  0  0  0
 53 54  1  0  0  0  0
 53 55  1  0  0  0  0
 55 56  1  0  0  0  0
 55 57  1  0  0  0  0
 55 58  1  0  0  0  0
 53 59  1  0  0  0  0
 59 60  1  0  0  0  0
 59 61  1  0  0  0  0
 59 62  1  0  0  0  0
 19 63  1  0  0  0  0
 63 64  1  0  0  0  0
 64 65  1  0  0  0  0
 65 66  1  0  0  0  0
 66 67  1  0  0  0  0
 66 68  1  0  0  0  0
 66 69  1  0  0  0  0
 65 70  1  0  0  0  0
 70 71  1  0  0  0  0
 70 72  1  0  0  0  0
 70 73  1  0  0  0  0
 65 74  1  0  0  0  0
 63 75  1  0  0  0  0
 74 75  1  0  0  0  0
 74 76  1  0  0  0  0
 76 77  1  0  0  0  0
 76 78  1  0  0  0  0
 76 79  1  0  0  0  0
 74 80  1  0  0  0  0
 80 81  1  0  0  0  0
 80 82  1  0  0  0  0
 80 83  1  0  0  0  0
  4 84  1  0  0  0  0
 14 85  1  0  0  0  0
 19 86  1  0  0  0  0
 20 86  1  0  0  0  0
 86 87  4  0  0  0  0
 86 88  4  0  0  0  0
 87 89  2  0  0  0  0
 87 90  1  0  0  0  0
 88 91  4  0  0  0  0
 88 92  1  0  0  0  0
 89 93  4  0  0  0  0
 91 93  4  0  0  0  0
 89 94  1  0  0  0  0
 91 95  1  0  0  0  0
 93 96  4  0  0  0  0
 95 97  4  0  0  0  0
 96 97  2  0  0  0  0
 95 98  1  0  0  0  0
 96 99  1  0  0  0  0
 97100  1  0  0  0  0
M  END
