   11

C         -1.58033        0.17456        0.00962
S         -0.14620        1.10496        0.00821
C          0.83823       -0.29522        0.00380
C          2.32406       -0.17745        0.01211
C          0.07967       -1.44907       -0.00376
C         -1.31894       -1.17719        0.00034
H          2.66210        0.86361       -0.00249
H          2.74771       -0.68077       -0.86344
H          2.73343       -0.65143        0.91053
H          0.50811       -2.44386       -0.00871
H         -2.09345       -1.93413       -0.00112
