
  xtb     01142213153D
 xtb: 6.4.1 (1a32961)
 10 10  0     0  0            999 V2000
    1.1281   -0.7651    0.0104 C   0  0  0  0  0  0  0  0  0  0  0  0
    1.2191    0.5574    0.0113 N   0  0  0  0  0  0  0  0  0  0  0  0
    0.0820    1.2303   -0.0036 C   0  0  0  0  0  0  0  0  0  0  0  0
   -1.1351    0.7161   -0.0191 N   0  0  0  0  0  0  0  0  0  0  0  0
   -1.2221   -0.6068   -0.0195 C   0  0  0  0  0  0  0  0  0  0  0  0
   -0.0963   -1.4187   -0.0049 C   0  0  0  0  0  0  0  0  0  0  0  0
    2.0675   -1.3023    0.0229 H   0  0  0  0  0  0  0  0  0  0  0  0
    0.1549    2.3104   -0.0030 H   0  0  0  0  0  0  0  0  0  0  0  0
   -2.2250   -1.0136   -0.0324 H   0  0  0  0  0  0  0  0  0  0  0  0
   -0.1684   -2.4933   -0.0052 H   0  0  0  0  0  0  0  0  0  0  0  0
  1  2  4  0  0  0  0
  2  3  4  0  0  0  0
  3  4  4  0  0  0  0
  4  5  4  0  0  0  0
  1  6  4  0  0  0  0
  5  6  4  0  0  0  0
  1  7  1  0  0  0  0
  3  8  1  0  0  0  0
  5  9  1  0  0  0  0
  6 10  1  0  0  0  0
M  END
