
  xtb     10082107293D
 xtb: 6.4.0 (f63f532)
103110  0     0  0            999 V2000
   -0.9348   -1.9806   -0.4140 N   0  0  0  0  0  0  0  0  0  0  0  0
   -2.1714   -1.4734   -0.5682 C   0  0  0  0  0  0  0  0  0  0  0  0
   -3.0128   -1.9241   -1.5926 C   0  0  0  0  0  0  0  0  0  0  0  0
   -2.5768   -2.9064   -2.4547 C   0  0  0  0  0  0  0  0  0  0  0  0
   -1.2981   -3.4279   -2.2780 C   0  0  0  0  0  0  0  0  0  0  0  0
   -0.5248   -2.9289   -1.2507 C   0  0  0  0  0  0  0  0  0  0  0  0
    0.4758   -3.2995   -1.0794 H   0  0  0  0  0  0  0  0  0  0  0  0
   -0.9152   -4.1980   -2.9276 H   0  0  0  0  0  0  0  0  0  0  0  0
   -3.9937   -1.4978   -1.7244 H   0  0  0  0  0  0  0  0  0  0  0  0
   -2.5589   -0.4173    0.3596 C   0  0  0  0  0  0  0  0  0  0  0  0
   -1.5935    0.0519    1.1765 N   0  0  0  0  0  0  0  0  0  0  0  0
   -1.8929    1.0346    2.0223 C   0  0  0  0  0  0  0  0  0  0  0  0
   -3.1480    1.5986    2.1209 C   0  0  0  0  0  0  0  0  0  0  0  0
   -4.1598    1.1155    1.2951 C   0  0  0  0  0  0  0  0  0  0  0  0
   -3.8574    0.1049    0.4083 C   0  0  0  0  0  0  0  0  0  0  0  0
   -4.6287   -0.2877   -0.2333 H   0  0  0  0  0  0  0  0  0  0  0  0
   -3.3367    2.3857    2.8329 H   0  0  0  0  0  0  0  0  0  0  0  0
   -1.0768    1.3710    2.6442 H   0  0  0  0  0  0  0  0  0  0  0  0
    0.4215   -0.8165    0.9133 Ir  0  0  0  0  0  0  0  0  0  0  0  0
    0.8726   -2.2303    1.5405 H   0  0  0  0  0  0  0  0  0  0  0  0
    0.3097    0.6560   -0.5625 B   0  0  0  0  0  0  0  0  0  0  0  0
   -0.3035    0.4016   -1.7757 O   0  0  0  0  0  0  0  0  0  0  0  0
   -0.5186    1.6300   -2.4807 C   0  0  0  0  0  0  0  0  0  0  0  0
   -0.2562    1.4263   -3.9701 C   0  0  0  0  0  0  0  0  0  0  0  0
    0.7114    0.9630   -4.1300 H   0  0  0  0  0  0  0  0  0  0  0  0
   -0.2951    2.3809   -4.4887 H   0  0  0  0  0  0  0  0  0  0  0  0
   -1.0200    0.7703   -4.3811 H   0  0  0  0  0  0  0  0  0  0  0  0
   -1.9906    2.0169   -2.2745 C   0  0  0  0  0  0  0  0  0  0  0  0
   -2.2418    2.9140   -2.8326 H   0  0  0  0  0  0  0  0  0  0  0  0
   -2.6177    1.1966   -2.6187 H   0  0  0  0  0  0  0  0  0  0  0  0
   -2.1931    2.1757   -1.2168 H   0  0  0  0  0  0  0  0  0  0  0  0
    0.4659    2.6072   -1.7620 C   0  0  0  0  0  0  0  0  0  0  0  0
    0.6159    1.9965   -0.4731 O   0  0  0  0  0  0  0  0  0  0  0  0
    1.8544    2.6154   -2.4130 C   0  0  0  0  0  0  0  0  0  0  0  0
    2.2268    1.5954   -2.4746 H   0  0  0  0  0  0  0  0  0  0  0  0
    1.8270    3.0724   -3.3980 H   0  0  0  0  0  0  0  0  0  0  0  0
    2.5339    3.1783   -1.7779 H   0  0  0  0  0  0  0  0  0  0  0  0
   -0.0386    4.0404   -1.6081 C   0  0  0  0  0  0  0  0  0  0  0  0
   -0.9222    4.0826   -0.9781 H   0  0  0  0  0  0  0  0  0  0  0  0
    0.7373    4.6451   -1.1446 H   0  0  0  0  0  0  0  0  0  0  0  0
   -0.2702    4.4590   -2.5842 H   0  0  0  0  0  0  0  0  0  0  0  0
    1.5770    0.6741    1.8312 B   0  0  0  0  0  0  0  0  0  0  0  0
    2.8032    1.1724    1.4960 O   0  0  0  0  0  0  0  0  0  0  0  0
    3.1244    2.3394    2.2687 C   0  0  0  0  0  0  0  0  0  0  0  0
    4.4831    2.1243    2.9420 C   0  0  0  0  0  0  0  0  0  0  0  0
    4.4942    1.2010    3.5118 H   0  0  0  0  0  0  0  0  0  0  0  0
    5.2474    2.0492    2.1731 H   0  0  0  0  0  0  0  0  0  0  0  0
    4.7220    2.9614    3.5905 H   0  0  0  0  0  0  0  0  0  0  0  0
    3.2411    3.5084    1.2852 C   0  0  0  0  0  0  0  0  0  0  0  0
    3.4269    4.4429    1.8057 H   0  0  0  0  0  0  0  0  0  0  0  0
    4.0705    3.3098    0.6105 H   0  0  0  0  0  0  0  0  0  0  0  0
    2.3347    3.5793    0.6924 H   0  0  0  0  0  0  0  0  0  0  0  0
    1.9128    2.4643    3.2701 C   0  0  0  0  0  0  0  0  0  0  0  0
    1.0525    1.3800    2.8918 O   0  0  0  0  0  0  0  0  0  0  0  0
    1.1031    3.7577    3.1280 C   0  0  0  0  0  0  0  0  0  0  0  0
    0.6978    3.8414    2.1241 H   0  0  0  0  0  0  0  0  0  0  0  0
    0.2717    3.7269    3.8290 H   0  0  0  0  0  0  0  0  0  0  0  0
    1.7161    4.6250    3.3531 H   0  0  0  0  0  0  0  0  0  0  0  0
    2.2868    2.2826    4.7447 C   0  0  0  0  0  0  0  0  0  0  0  0
    2.8063    1.3440    4.9049 H   0  0  0  0  0  0  0  0  0  0  0  0
    2.9107    3.1040    5.0832 H   0  0  0  0  0  0  0  0  0  0  0  0
    1.3738    2.2692    5.3357 H   0  0  0  0  0  0  0  0  0  0  0  0
    2.2782   -1.3309    0.1741 B   0  0  0  0  0  0  0  0  0  0  0  0
    3.2389   -2.1118    0.7701 O   0  0  0  0  0  0  0  0  0  0  0  0
    4.4615   -2.0489    0.0219 C   0  0  0  0  0  0  0  0  0  0  0  0
    5.3659   -1.0476    0.7459 C   0  0  0  0  0  0  0  0  0  0  0  0
    4.8527   -0.0930    0.8151 H   0  0  0  0  0  0  0  0  0  0  0  0
    5.5336   -1.4062    1.7582 H   0  0  0  0  0  0  0  0  0  0  0  0
    6.3195   -0.9363    0.2399 H   0  0  0  0  0  0  0  0  0  0  0  0
    5.1266   -3.4235    0.0157 C   0  0  0  0  0  0  0  0  0  0  0  0
    5.4130   -3.6737    1.0335 H   0  0  0  0  0  0  0  0  0  0  0  0
    6.0158   -3.4031   -0.6079 H   0  0  0  0  0  0  0  0  0  0  0  0
    4.4487   -4.1910   -0.3430 H   0  0  0  0  0  0  0  0  0  0  0  0
    3.9794   -1.5322   -1.3783 C   0  0  0  0  0  0  0  0  0  0  0  0
    2.7035   -0.9436   -1.0775 O   0  0  0  0  0  0  0  0  0  0  0  0
    4.8789   -0.4758   -2.0169 C   0  0  0  0  0  0  0  0  0  0  0  0
    5.8858   -0.8637   -2.1424 H   0  0  0  0  0  0  0  0  0  0  0  0
    4.4796   -0.2116   -2.9932 H   0  0  0  0  0  0  0  0  0  0  0  0
    4.9028    0.4196   -1.4055 H   0  0  0  0  0  0  0  0  0  0  0  0
    3.7340   -2.6614   -2.3880 C   0  0  0  0  0  0  0  0  0  0  0  0
    3.0798   -3.4152   -1.9584 H   0  0  0  0  0  0  0  0  0  0  0  0
    3.2395   -2.2445   -3.2621 H   0  0  0  0  0  0  0  0  0  0  0  0
    4.6698   -3.1191   -2.6937 H   0  0  0  0  0  0  0  0  0  0  0  0
   -3.2131   -3.2590   -3.2521 H   0  0  0  0  0  0  0  0  0  0  0  0
   -5.1593    1.5197    1.3483 H   0  0  0  0  0  0  0  0  0  0  0  0
    0.2359   -1.6814    2.9603 C   0  0  0  0  0  0  0  0  0  0  0  0
   -1.0723   -2.0467    3.2626 C   0  0  0  0  0  0  0  0  0  0  0  0
    1.1157   -1.6189    4.0373 C   0  0  0  0  0  0  0  0  0  0  0  0
   -1.5238   -2.2198    4.5710 C   0  0  0  0  0  0  0  0  0  0  0  0
   -1.7949   -2.2187    2.4787 H   0  0  0  0  0  0  0  0  0  0  0  0
    0.6939   -1.7834    5.3438 C   0  0  0  0  0  0  0  0  0  0  0  0
    2.9814   -1.3769    3.7773 Br  0  0  0  0  0  0  0  0  0  0  0  0
   -2.8423   -2.5515    4.6952 O   0  0  0  0  0  0  0  0  0  0  0  0
   -0.6323   -2.0654    5.6259 C   0  0  0  0  0  0  0  0  0  0  0  0
    1.4088   -1.7079    6.1487 H   0  0  0  0  0  0  0  0  0  0  0  0
   -3.3702   -2.7991    5.9892 C   0  0  0  0  0  0  0  0  0  0  0  0
   -0.9379   -2.1871    6.6521 H   0  0  0  0  0  0  0  0  0  0  0  0
   -4.8290   -3.1985    5.8264 C   0  0  0  0  0  0  0  0  0  0  0  0
   -3.2888   -1.8927    6.6048 H   0  0  0  0  0  0  0  0  0  0  0  0
   -2.8062   -3.6072    6.4742 H   0  0  0  0  0  0  0  0  0  0  0  0
   -5.3806   -2.3979    5.3408 H   0  0  0  0  0  0  0  0  0  0  0  0
   -5.2644   -3.3961    6.8013 H   0  0  0  0  0  0  0  0  0  0  0  0
   -4.9014   -4.0922    5.2124 H   0  0  0  0  0  0  0  0  0  0  0  0
  1  2  4  0  0  0  0
  2  3  4  0  0  0  0
  3  4  4  0  0  0  0
  4  5  4  0  0  0  0
  1  6  4  0  0  0  0
  5  6  4  0  0  0  0
  6  7  1  0  0  0  0
  5  8  1  0  0  0  0
  3  9  1  0  0  0  0
  2 10  1  0  0  0  0
 10 11  4  0  0  0  0
 11 12  4  0  0  0  0
 12 13  4  0  0  0  0
 13 14  4  0  0  0  0
 10 15  4  0  0  0  0
 14 15  4  0  0  0  0
 15 16  1  0  0  0  0
 13 17  1  0  0  0  0
 12 18  1  0  0  0  0
  1 19  1  0  0  0  0
 11 19  1  0  0  0  0
 19 20  1  0  0  0  0
 19 21  1  0  0  0  0
 21 22  1  0  0  0  0
 22 23  1  0  0  0  0
 23 24  1  0  0  0  0
 24 25  1  0  0  0  0
 24 26  1  0  0  0  0
 24 27  1  0  0  0  0
 23 28  1  0  0  0  0
 28 29  1  0  0  0  0
 28 30  1  0  0  0  0
 28 31  1  0  0  0  0
 23 32  1  0  0  0  0
 21 33  1  0  0  0  0
 32 33  1  0  0  0  0
 32 34  1  0  0  0  0
 34 35  1  0  0  0  0
 34 36  1  0  0  0  0
 34 37  1  0  0  0  0
 32 38  1  0  0  0  0
 38 39  1  0  0  0  0
 38 40  1  0  0  0  0
 38 41  1  0  0  0  0
 19 42  1  0  0  0  0
 42 43  1  0  0  0  0
 43 44  1  0  0  0  0
 44 45  1  0  0  0  0
 45 46  1  0  0  0  0
 45 47  1  0  0  0  0
 45 48  1  0  0  0  0
 44 49  1  0  0  0  0
 49 50  1  0  0  0  0
 49 51  1  0  0  0  0
 49 52  1  0  0  0  0
 44 53  1  0  0  0  0
 42 54  1  0  0  0  0
 53 54  1  0  0  0  0
 53 55  1  0  0  0  0
 55 56  1  0  0  0  0
 55 57  1  0  0  0  0
 55 58  1  0  0  0  0
 53 59  1  0  0  0  0
 59 60  1  0  0  0  0
 59 61  1  0  0  0  0
 59 62  1  0  0  0  0
 19 63  1  0  0  0  0
 63 64  1  0  0  0  0
 64 65  1  0  0  0  0
 65 66  1  0  0  0  0
 66 67  1  0  0  0  0
 66 68  1  0  0  0  0
 66 69  1  0  0  0  0
 65 70  1  0  0  0  0
 70 71  1  0  0  0  0
 70 72  1  0  0  0  0
 70 73  1  0  0  0  0
 65 74  1  0  0  0  0
 63 75  1  0  0  0  0
 74 75  1  0  0  0  0
 74 76  1  0  0  0  0
 76 77  1  0  0  0  0
 76 78  1  0  0  0  0
 76 79  1  0  0  0  0
 74 80  1  0  0  0  0
 80 81  1  0  0  0  0
 80 82  1  0  0  0  0
 80 83  1  0  0  0  0
  4 84  1  0  0  0  0
 14 85  1  0  0  0  0
 19 86  1  0  0  0  0
 20 86  1  0  0  0  0
 86 87  4  0  0  0  0
 86 88  4  0  0  0  0
 87 89  4  0  0  0  0
 87 90  1  0  0  0  0
 88 91  4  0  0  0  0
 88 92  1  0  0  0  0
 89 93  1  0  0  0  0
 89 94  4  0  0  0  0
 91 94  4  0  0  0  0
 91 95  1  0  0  0  0
 93 96  1  0  0  0  0
 94 97  1  0  0  0  0
 96 98  1  0  0  0  0
 96 99  1  0  0  0  0
 96100  1  0  0  0  0
 98101  1  0  0  0  0
 98102  1  0  0  0  0
 98103  1  0  0  0  0
M  END
