   34
Created with kallisto
C      0.8288    0.6789   -1.3533
C      2.0786    0.3434   -0.7985
C     -0.3165    0.2751   -0.6696
C      2.1520   -0.3788    0.4142
H      2.9892    0.6397   -1.3040
O     -1.5676    0.4770   -1.0079
C     -0.2446   -0.4193    0.5082
C      0.9763   -0.7686    1.0839
H      3.1179   -0.6339    0.8305
C     -2.3249   -0.0662   -0.0711
C     -1.5353   -0.6504    0.9160
H      1.0212   -1.3224    2.0130
B     -3.8866   -0.0511   -0.1047
H     -1.8631   -1.1728    1.8032
O     -4.6246    0.4856   -1.2459
O     -4.7014   -0.6362    0.9596
C     -5.9499    0.4128   -0.7875
C     -5.9612   -0.7036    0.3414
C     -6.3457    1.8164   -0.2574
C     -6.8677    0.0912   -1.9853
C     -7.0523   -0.4889    1.4119
C     -6.1397   -2.1390   -0.2231
H     -6.2353    2.5773   -1.0595
H     -5.7037    2.1210    0.5956
H     -7.4087    1.8308    0.0683
H     -6.7998    0.8972   -2.7477
H     -7.9244   -0.0093   -1.6621
H     -6.5481   -0.8437   -2.4919
H     -8.0643   -0.4985    0.9560
H     -6.9017    0.4711    1.9488
H     -6.9984   -1.2885    2.1822
H     -7.1459   -2.2619   -0.6797
H     -6.0529   -2.8886    0.5926
H     -5.3681   -2.3718   -0.9865
