    9
Created with kallisto
C     -0.0193   -1.3152   -0.0048
C      1.3534   -1.1903    0.0035
C     -0.6730   -0.0466   -0.0092
S      1.8496    0.4480    0.0010
H      2.0917   -1.9811    0.0106
C      0.2271    0.9973   -0.0091
C     -2.0922    0.1455   -0.0126
H      0.0194    2.0598   -0.0131
N     -3.2424    0.2981   -0.0136
