
  xtb     01142213273D
 xtb: 6.4.1 (1a32961)
 15 15  0     0  0            999 V2000
    0.9872    1.2086   -0.0116 C   0  0  0  0  0  0  0  0  0  0  0  0
    2.3747    1.1966   -0.0072 C   0  0  0  0  0  0  0  0  0  0  0  0
    3.1460    2.4851   -0.0136 C   0  0  0  0  0  0  0  0  0  0  0  0
    2.3713    3.5791   -0.0357 F   0  0  0  0  0  0  0  0  0  0  0  0
    3.9419    2.6106    1.0684 F   0  0  0  0  0  0  0  0  0  0  0  0
    3.9669    2.5848   -1.0793 F   0  0  0  0  0  0  0  0  0  0  0  0
    3.0837    0.0003    0.0039 C   0  0  0  0  0  0  0  0  0  0  0  0
    2.3918   -1.1991    0.0099 C   0  0  0  0  0  0  0  0  0  0  0  0
    1.0067   -1.2097    0.0053 C   0  0  0  0  0  0  0  0  0  0  0  0
    0.3213   -0.0057   -0.0052 C   0  0  0  0  0  0  0  0  0  0  0  0
   -1.5860   -0.0097   -0.0144 Br  0  0  0  0  0  0  0  0  0  0  0  0
    0.4424    2.1397   -0.0203 H   0  0  0  0  0  0  0  0  0  0  0  0
    4.1620    0.0169    0.0079 H   0  0  0  0  0  0  0  0  0  0  0  0
    2.9332   -2.1310    0.0188 H   0  0  0  0  0  0  0  0  0  0  0  0
    0.4627   -2.1409    0.0097 H   0  0  0  0  0  0  0  0  0  0  0  0
  1  2  4  0  0  0  0
  2  3  1  0  0  0  0
  3  4  1  0  0  0  0
  3  5  1  0  0  0  0
  3  6  1  0  0  0  0
  2  7  4  0  0  0  0
  7  8  4  0  0  0  0
  8  9  4  0  0  0  0
  1 10  4  0  0  0  0
  9 10  4  0  0  0  0
 10 11  1  0  0  0  0
  1 12  1  0  0  0  0
  7 13  1  0  0  0  0
  8 14  1  0  0  0  0
  9 15  1  0  0  0  0
M  END
