
  xtb     10082107153D
 xtb: 6.4.0 (f63f532)
 22 23  0     0  0            999 V2000
    1.1229    0.1862   -0.8680 C   0  0  0  0  0  0  0  0  0  0  0  0
    0.8035    1.1872    0.0377 C   0  0  0  0  0  0  0  0  0  0  0  0
   -0.1781    0.9245    0.9805 C   0  0  0  0  0  0  0  0  0  0  0  0
   -0.8220   -0.2284    1.0582 N   0  0  0  0  0  0  0  0  0  0  0  0
   -0.5206   -1.1845    0.1890 C   0  0  0  0  0  0  0  0  0  0  0  0
   -1.3050   -2.4711    0.3238 C   0  0  0  0  0  0  0  0  0  0  0  0
   -0.4937   -3.6375    0.1069 N   0  0  0  0  0  0  0  0  0  0  0  0
   -0.4436   -4.3762   -1.0322 C   0  0  0  0  0  0  0  0  0  0  0  0
    0.4898   -5.3650   -0.8734 C   0  0  0  0  0  0  0  0  0  0  0  0
    1.0338   -5.2123    0.4170 C   0  0  0  0  0  0  0  0  0  0  0  0
    0.4090   -4.1379    0.9905 C   0  0  0  0  0  0  0  0  0  0  0  0
    0.4497   -1.0215   -0.7947 C   0  0  0  0  0  0  0  0  0  0  0  0
    1.8829    0.3440   -1.6192 H   0  0  0  0  0  0  0  0  0  0  0  0
    1.3031    2.1426    0.0150 H   0  0  0  0  0  0  0  0  0  0  0  0
   -0.4664    1.6648    1.7155 H   0  0  0  0  0  0  0  0  0  0  0  0
   -2.1172   -2.4698   -0.4102 H   0  0  0  0  0  0  0  0  0  0  0  0
   -1.7450   -2.4963    1.3246 H   0  0  0  0  0  0  0  0  0  0  0  0
   -1.0797   -4.1544   -1.8674 H   0  0  0  0  0  0  0  0  0  0  0  0
    0.7533   -6.1154   -1.5938 H   0  0  0  0  0  0  0  0  0  0  0  0
    1.7914   -5.8241    0.8674 H   0  0  0  0  0  0  0  0  0  0  0  0
    0.5382   -3.6959    1.9591 H   0  0  0  0  0  0  0  0  0  0  0  0
    0.6720   -1.8264   -1.4782 H   0  0  0  0  0  0  0  0  0  0  0  0
  1  2  4  0  0  0  0
  2  3  4  0  0  0  0
  3  4  4  0  0  0  0
  4  5  4  0  0  0  0
  5  6  1  0  0  0  0
  6  7  1  0  0  0  0
  7  8  4  0  0  0  0
  8  9  2  0  0  0  0
  9 10  4  0  0  0  0
  7 11  4  0  0  0  0
 10 11  2  0  0  0  0
  1 12  4  0  0  0  0
  5 12  4  0  0  0  0
  1 13  1  0  0  0  0
  2 14  1  0  0  0  0
  3 15  1  0  0  0  0
  6 16  1  0  0  0  0
  6 17  1  0  0  0  0
  8 18  1  0  0  0  0
  9 19  1  0  0  0  0
 10 20  1  0  0  0  0
 11 21  1  0  0  0  0
 12 22  1  0  0  0  0
M  END
