
  xtb     01142215323D
 xtb: 6.4.1 (1a32961)
 13 13  0     0  0            999 V2000
    1.2470   -0.9864    0.0076 S   0  0  0  0  0  0  0  0  0  0  0  0
   -0.4761   -1.2503    0.0071 C   0  0  0  0  0  0  0  0  0  0  0  0
   -0.9998   -2.5404    0.0090 C   0  0  0  0  0  0  0  0  0  0  0  0
   -1.4361   -3.6048    0.0109 N   0  0  0  0  0  0  0  0  0  0  0  0
   -1.1650   -0.0629    0.0051 C   0  0  0  0  0  0  0  0  0  0  0  0
   -0.3139    1.0542    0.0039 C   0  0  0  0  0  0  0  0  0  0  0  0
    1.0134    0.7312    0.0050 C   0  0  0  0  0  0  0  0  0  0  0  0
    2.1811    1.6482    0.0043 C   0  0  0  0  0  0  0  0  0  0  0  0
   -2.2391   -0.0108    0.0045 H   0  0  0  0  0  0  0  0  0  0  0  0
   -0.6722    2.0678    0.0023 H   0  0  0  0  0  0  0  0  0  0  0  0
    1.8421    2.6808    0.0044 H   0  0  0  0  0  0  0  0  0  0  0  0
    2.8004    1.4780   -0.8756 H   0  0  0  0  0  0  0  0  0  0  0  0
    2.8014    1.4781    0.8836 H   0  0  0  0  0  0  0  0  0  0  0  0
  1  2  1  0  0  0  0
  2  3  1  0  0  0  0
  3  4  3  0  0  0  0
  2  5  4  0  0  0  0
  5  6  4  0  0  0  0
  1  7  1  0  0  0  0
  6  7  2  0  0  0  0
  7  8  1  0  0  0  0
  5  9  1  0  0  0  0
  6 10  1  0  0  0  0
  8 11  1  0  0  0  0
  8 12  1  0  0  0  0
  8 13  1  0  0  0  0
M  END
