
  xtb     01142214183D
 xtb: 6.4.1 (1a32961)
 99107  0     0  0            999 V2000
   -0.9068   -2.0281   -0.3814 N   0  0  0  0  0  0  0  0  0  0  0  0
   -2.1650   -1.5725   -0.5330 C   0  0  0  0  0  0  0  0  0  0  0  0
   -3.0334   -2.1569   -1.4644 C   0  0  0  0  0  0  0  0  0  0  0  0
   -2.5984   -3.2047   -2.2456 C   0  0  0  0  0  0  0  0  0  0  0  0
   -1.2925   -3.6611   -2.0812 C   0  0  0  0  0  0  0  0  0  0  0  0
   -0.4977   -3.0410   -1.1404 C   0  0  0  0  0  0  0  0  0  0  0  0
    0.5199   -3.3648   -0.9726 H   0  0  0  0  0  0  0  0  0  0  0  0
   -0.9097   -4.4788   -2.6698 H   0  0  0  0  0  0  0  0  0  0  0  0
   -4.0412   -1.7934   -1.5795 H   0  0  0  0  0  0  0  0  0  0  0  0
   -2.5514   -0.4513    0.3142 C   0  0  0  0  0  0  0  0  0  0  0  0
   -1.6085    0.0198    1.1585 N   0  0  0  0  0  0  0  0  0  0  0  0
   -1.9194    1.0360    1.9598 C   0  0  0  0  0  0  0  0  0  0  0  0
   -3.1573    1.6453    1.9733 C   0  0  0  0  0  0  0  0  0  0  0  0
   -4.1361    1.1813    1.0979 C   0  0  0  0  0  0  0  0  0  0  0  0
   -3.8253    0.1289    0.2646 C   0  0  0  0  0  0  0  0  0  0  0  0
   -4.5698   -0.2415   -0.4204 H   0  0  0  0  0  0  0  0  0  0  0  0
   -3.3566    2.4591    2.6515 H   0  0  0  0  0  0  0  0  0  0  0  0
   -1.1239    1.3694    2.6083 H   0  0  0  0  0  0  0  0  0  0  0  0
    0.4215   -0.8165    0.9133 Ir  0  0  0  0  0  0  0  0  0  0  0  0
    0.8726   -2.2303    1.5405 H   0  0  0  0  0  0  0  0  0  0  0  0
    0.3862    0.6243   -0.5967 B   0  0  0  0  0  0  0  0  0  0  0  0
   -0.2897    0.3556   -1.7751 O   0  0  0  0  0  0  0  0  0  0  0  0
   -0.3959    1.5472   -2.5609 C   0  0  0  0  0  0  0  0  0  0  0  0
   -0.1990    1.2121   -4.0371 C   0  0  0  0  0  0  0  0  0  0  0  0
    0.7094    0.6371   -4.1822 H   0  0  0  0  0  0  0  0  0  0  0  0
   -0.1522    2.1255   -4.6245 H   0  0  0  0  0  0  0  0  0  0  0  0
   -1.0388    0.6144   -4.3837 H   0  0  0  0  0  0  0  0  0  0  0  0
   -1.8139    2.0981   -2.3506 C   0  0  0  0  0  0  0  0  0  0  0  0
   -1.9865    2.9818   -2.9577 H   0  0  0  0  0  0  0  0  0  0  0  0
   -2.5311    1.3289   -2.6307 H   0  0  0  0  0  0  0  0  0  0  0  0
   -1.9700    2.3372   -1.3003 H   0  0  0  0  0  0  0  0  0  0  0  0
    0.7061    2.4637   -1.9368 C   0  0  0  0  0  0  0  0  0  0  0  0
    0.8477    1.9209   -0.6171 O   0  0  0  0  0  0  0  0  0  0  0  0
    2.0654    2.2996   -2.6277 C   0  0  0  0  0  0  0  0  0  0  0  0
    2.3456    1.2490   -2.6158 H   0  0  0  0  0  0  0  0  0  0  0  0
    2.0438    2.6797   -3.6451 H   0  0  0  0  0  0  0  0  0  0  0  0
    2.8127    2.8481   -2.0590 H   0  0  0  0  0  0  0  0  0  0  0  0
    0.3465    3.9460   -1.8590 C   0  0  0  0  0  0  0  0  0  0  0  0
   -0.5101    4.1104   -1.2128 H   0  0  0  0  0  0  0  0  0  0  0  0
    1.1905    4.4961   -1.4498 H   0  0  0  0  0  0  0  0  0  0  0  0
    0.1290    4.3282   -2.8532 H   0  0  0  0  0  0  0  0  0  0  0  0
    1.5587    0.6527    1.8672 B   0  0  0  0  0  0  0  0  0  0  0  0
    2.9258    0.8030    1.8722 O   0  0  0  0  0  0  0  0  0  0  0  0
    3.2793    2.0789    2.4255 C   0  0  0  0  0  0  0  0  0  0  0  0
    4.5369    1.9440    3.2827 C   0  0  0  0  0  0  0  0  0  0  0  0
    4.4252    1.1579    4.0220 H   0  0  0  0  0  0  0  0  0  0  0  0
    5.3787    1.6903    2.6435 H   0  0  0  0  0  0  0  0  0  0  0  0
    4.7494    2.8855    3.7821 H   0  0  0  0  0  0  0  0  0  0  0  0
    3.5652    3.0051    1.2374 C   0  0  0  0  0  0  0  0  0  0  0  0
    3.8265    4.0069    1.5651 H   0  0  0  0  0  0  0  0  0  0  0  0
    4.3939    2.5916    0.6669 H   0  0  0  0  0  0  0  0  0  0  0  0
    2.6923    3.0272    0.5903 H   0  0  0  0  0  0  0  0  0  0  0  0
    1.9856    2.4832    3.2112 C   0  0  0  0  0  0  0  0  0  0  0  0
    0.9790    1.6618    2.6048 O   0  0  0  0  0  0  0  0  0  0  0  0
    1.5857    3.9517    3.0792 C   0  0  0  0  0  0  0  0  0  0  0  0
    1.3517    4.1929    2.0477 H   0  0  0  0  0  0  0  0  0  0  0  0
    0.6993    4.1344    3.6819 H   0  0  0  0  0  0  0  0  0  0  0  0
    2.3880    4.5929    3.4341 H   0  0  0  0  0  0  0  0  0  0  0  0
    2.0422    2.1072    4.6975 C   0  0  0  0  0  0  0  0  0  0  0  0
    2.2805    1.0529    4.8051 H   0  0  0  0  0  0  0  0  0  0  0  0
    2.7738    2.7105    5.2261 H   0  0  0  0  0  0  0  0  0  0  0  0
    1.0619    2.2741    5.1377 H   0  0  0  0  0  0  0  0  0  0  0  0
    2.2782   -1.3309    0.1741 B   0  0  0  0  0  0  0  0  0  0  0  0
    3.1194   -2.2784    0.7187 O   0  0  0  0  0  0  0  0  0  0  0  0
    4.4043   -2.2308    0.0862 C   0  0  0  0  0  0  0  0  0  0  0  0
    5.3379   -1.4957    1.0541 C   0  0  0  0  0  0  0  0  0  0  0  0
    4.9028   -0.5305    1.2972 H   0  0  0  0  0  0  0  0  0  0  0  0
    5.4048   -2.0741    1.9722 H   0  0  0  0  0  0  0  0  0  0  0  0
    6.3332   -1.3766    0.6375 H   0  0  0  0  0  0  0  0  0  0  0  0
    4.9180   -3.6548   -0.1278 C   0  0  0  0  0  0  0  0  0  0  0  0
    5.0553   -4.1257    0.8420 H   0  0  0  0  0  0  0  0  0  0  0  0
    5.8713   -3.6345   -0.6482 H   0  0  0  0  0  0  0  0  0  0  0  0
    4.2092   -4.2511   -0.6926 H   0  0  0  0  0  0  0  0  0  0  0  0
    4.1173   -1.4222   -1.2294 C   0  0  0  0  0  0  0  0  0  0  0  0
    2.8522   -0.8008   -0.9575 O   0  0  0  0  0  0  0  0  0  0  0  0
    5.1439   -0.3363   -1.5490 C   0  0  0  0  0  0  0  0  0  0  0  0
    6.1326   -0.7713   -1.6649 H   0  0  0  0  0  0  0  0  0  0  0  0
    4.8642    0.1546   -2.4777 H   0  0  0  0  0  0  0  0  0  0  0  0
    5.1581    0.4107   -0.7631 H   0  0  0  0  0  0  0  0  0  0  0  0
    3.9307   -2.3133   -2.4649 C   0  0  0  0  0  0  0  0  0  0  0  0
    3.1661   -3.0622   -2.2779 H   0  0  0  0  0  0  0  0  0  0  0  0
    3.5959   -1.6929   -3.2928 H   0  0  0  0  0  0  0  0  0  0  0  0
    4.8621   -2.7980   -2.7413 H   0  0  0  0  0  0  0  0  0  0  0  0
   -3.2568   -3.6605   -2.9695 H   0  0  0  0  0  0  0  0  0  0  0  0
   -5.1162    1.6332    1.0713 H   0  0  0  0  0  0  0  0  0  0  0  0
    0.2359   -1.6814    2.9603 C   0  0  0  0  0  0  0  0  0  0  0  0
   -1.0390   -2.0654    3.3386 C   0  0  0  0  0  0  0  0  0  0  0  0
    1.2164   -1.5160    3.9511 C   0  0  0  0  0  0  0  0  0  0  0  0
   -1.3702   -2.1801    4.6919 C   0  0  0  0  0  0  0  0  0  0  0  0
   -1.8044   -2.2849    2.6073 H   0  0  0  0  0  0  0  0  0  0  0  0
    0.9215   -1.6313    5.2941 C   0  0  0  0  0  0  0  0  0  0  0  0
    2.2274   -1.2984    3.6430 H   0  0  0  0  0  0  0  0  0  0  0  0
   -0.3792   -1.9460    5.6606 C   0  0  0  0  0  0  0  0  0  0  0  0
   -2.6230   -2.5241    5.2883 C   0  0  0  0  0  0  0  0  0  0  0  0
    1.6804   -1.4916    6.0496 H   0  0  0  0  0  0  0  0  0  0  0  0
   -1.0102   -2.1462    7.2753 S   0  0  0  0  0  0  0  0  0  0  0  0
   -2.5747   -2.5400    6.6357 C   0  0  0  0  0  0  0  0  0  0  0  0
   -3.5085   -2.7430    4.7179 H   0  0  0  0  0  0  0  0  0  0  0  0
   -3.3648   -2.7625    7.3264 H   0  0  0  0  0  0  0  0  0  0  0  0
  1  2  4  0  0  0  0
  2  3  4  0  0  0  0
  3  4  4  0  0  0  0
  4  5  4  0  0  0  0
  1  6  4  0  0  0  0
  5  6  4  0  0  0  0
  6  7  1  0  0  0  0
  5  8  1  0  0  0  0
  3  9  1  0  0  0  0
  2 10  1  0  0  0  0
 10 11  4  0  0  0  0
 11 12  4  0  0  0  0
 12 13  4  0  0  0  0
 13 14  4  0  0  0  0
 10 15  4  0  0  0  0
 14 15  4  0  0  0  0
 15 16  1  0  0  0  0
 13 17  1  0  0  0  0
 12 18  1  0  0  0  0
  1 19  1  0  0  0  0
 11 19  1  0  0  0  0
 19 20  1  0  0  0  0
 19 21  1  0  0  0  0
 21 22  1  0  0  0  0
 22 23  1  0  0  0  0
 23 24  1  0  0  0  0
 24 25  1  0  0  0  0
 24 26  1  0  0  0  0
 24 27  1  0  0  0  0
 23 28  1  0  0  0  0
 28 29  1  0  0  0  0
 28 30  1  0  0  0  0
 28 31  1  0  0  0  0
 23 32  1  0  0  0  0
 21 33  1  0  0  0  0
 32 33  1  0  0  0  0
 32 34  1  0  0  0  0
 34 35  1  0  0  0  0
 34 36  1  0  0  0  0
 34 37  1  0  0  0  0
 32 38  1  0  0  0  0
 38 39  1  0  0  0  0
 38 40  1  0  0  0  0
 38 41  1  0  0  0  0
 19 42  1  0  0  0  0
 42 43  1  0  0  0  0
 43 44  1  0  0  0  0
 44 45  1  0  0  0  0
 45 46  1  0  0  0  0
 45 47  1  0  0  0  0
 45 48  1  0  0  0  0
 44 49  1  0  0  0  0
 49 50  1  0  0  0  0
 49 51  1  0  0  0  0
 49 52  1  0  0  0  0
 44 53  1  0  0  0  0
 42 54  1  0  0  0  0
 53 54  1  0  0  0  0
 53 55  1  0  0  0  0
 55 56  1  0  0  0  0
 55 57  1  0  0  0  0
 55 58  1  0  0  0  0
 53 59  1  0  0  0  0
 59 60  1  0  0  0  0
 59 61  1  0  0  0  0
 59 62  1  0  0  0  0
 19 63  1  0  0  0  0
 63 64  1  0  0  0  0
 64 65  1  0  0  0  0
 65 66  1  0  0  0  0
 66 67  1  0  0  0  0
 66 68  1  0  0  0  0
 66 69  1  0  0  0  0
 65 70  1  0  0  0  0
 70 71  1  0  0  0  0
 70 72  1  0  0  0  0
 70 73  1  0  0  0  0
 65 74  1  0  0  0  0
 63 75  1  0  0  0  0
 74 75  1  0  0  0  0
 74 76  1  0  0  0  0
 76 77  1  0  0  0  0
 76 78  1  0  0  0  0
 76 79  1  0  0  0  0
 74 80  1  0  0  0  0
 80 81  1  0  0  0  0
 80 82  1  0  0  0  0
 80 83  1  0  0  0  0
  4 84  1  0  0  0  0
 14 85  1  0  0  0  0
 19 86  1  0  0  0  0
 20 86  1  0  0  0  0
 86 87  4  0  0  0  0
 86 88  4  0  0  0  0
 87 89  4  0  0  0  0
 87 90  1  0  0  0  0
 88 91  4  0  0  0  0
 88 92  1  0  0  0  0
 89 93  4  0  0  0  0
 91 93  4  0  0  0  0
 89 94  1  0  0  0  0
 91 95  1  0  0  0  0
 93 96  1  0  0  0  0
 94 97  2  0  0  0  0
 96 97  1  0  0  0  0
 94 98  1  0  0  0  0
 97 99  1  0  0  0  0
M  END
