
  xtb     01142213453D
 xtb: 6.4.1 (1a32961)
 94101  0     0  0            999 V2000
   -0.9480   -2.0414   -0.3401 N   0  0  0  0  0  0  0  0  0  0  0  0
   -2.1962   -1.5645   -0.4802 C   0  0  0  0  0  0  0  0  0  0  0  0
   -3.0649   -2.0912   -1.4418 C   0  0  0  0  0  0  0  0  0  0  0  0
   -2.6433   -3.1241   -2.2525 C   0  0  0  0  0  0  0  0  0  0  0  0
   -1.3532   -3.6167   -2.0868 C   0  0  0  0  0  0  0  0  0  0  0  0
   -0.5509   -3.0385   -1.1238 C   0  0  0  0  0  0  0  0  0  0  0  0
    0.4601   -3.3842   -0.9608 H   0  0  0  0  0  0  0  0  0  0  0  0
   -0.9826   -4.4258   -2.6947 H   0  0  0  0  0  0  0  0  0  0  0  0
   -4.0572   -1.6905   -1.5652 H   0  0  0  0  0  0  0  0  0  0  0  0
   -2.5765   -0.4718    0.4131 C   0  0  0  0  0  0  0  0  0  0  0  0
   -1.6008    0.0455    1.1841 N   0  0  0  0  0  0  0  0  0  0  0  0
   -1.8977    1.0430    2.0117 C   0  0  0  0  0  0  0  0  0  0  0  0
   -3.1650    1.5796    2.1326 C   0  0  0  0  0  0  0  0  0  0  0  0
   -4.1853    1.0518    1.3494 C   0  0  0  0  0  0  0  0  0  0  0  0
   -3.8840    0.0208    0.4836 C   0  0  0  0  0  0  0  0  0  0  0  0
   -4.6642   -0.4075   -0.1229 H   0  0  0  0  0  0  0  0  0  0  0  0
   -3.3507    2.3830    2.8267 H   0  0  0  0  0  0  0  0  0  0  0  0
   -1.0701    1.4239    2.5907 H   0  0  0  0  0  0  0  0  0  0  0  0
    0.4215   -0.8165    0.9133 Ir  0  0  0  0  0  0  0  0  0  0  0  0
    0.8726   -2.2303    1.5405 H   0  0  0  0  0  0  0  0  0  0  0  0
    0.4157    0.5474   -0.6590 B   0  0  0  0  0  0  0  0  0  0  0  0
   -0.2043    0.2290   -1.8521 O   0  0  0  0  0  0  0  0  0  0  0  0
   -0.3026    1.3957   -2.6776 C   0  0  0  0  0  0  0  0  0  0  0  0
   -0.0241    1.0233   -4.1313 C   0  0  0  0  0  0  0  0  0  0  0  0
    0.9093    0.4770   -4.2147 H   0  0  0  0  0  0  0  0  0  0  0  0
    0.0197    1.9194   -4.7448 H   0  0  0  0  0  0  0  0  0  0  0  0
   -0.8257    0.3862   -4.4970 H   0  0  0  0  0  0  0  0  0  0  0  0
   -1.7441    1.9091   -2.5524 C   0  0  0  0  0  0  0  0  0  0  0  0
   -1.9081    2.7774   -3.1832 H   0  0  0  0  0  0  0  0  0  0  0  0
   -2.4230    1.1152   -2.8572 H   0  0  0  0  0  0  0  0  0  0  0  0
   -1.9614    2.1604   -1.5162 H   0  0  0  0  0  0  0  0  0  0  0  0
    0.7437    2.3608   -2.0289 C   0  0  0  0  0  0  0  0  0  0  0  0
    0.8481    1.8513   -0.6913 O   0  0  0  0  0  0  0  0  0  0  0  0
    2.1349    2.2267   -2.6594 C   0  0  0  0  0  0  0  0  0  0  0  0
    2.4512    1.1879   -2.6033 H   0  0  0  0  0  0  0  0  0  0  0  0
    2.1409    2.5754   -3.6880 H   0  0  0  0  0  0  0  0  0  0  0  0
    2.8386    2.8194   -2.0797 H   0  0  0  0  0  0  0  0  0  0  0  0
    0.3347    3.8319   -1.9978 C   0  0  0  0  0  0  0  0  0  0  0  0
   -0.5573    3.9818   -1.3977 H   0  0  0  0  0  0  0  0  0  0  0  0
    1.1401    4.4157   -1.5587 H   0  0  0  0  0  0  0  0  0  0  0  0
    0.1556    4.1887   -3.0088 H   0  0  0  0  0  0  0  0  0  0  0  0
    1.5890    0.6353    1.8579 B   0  0  0  0  0  0  0  0  0  0  0  0
    2.9559    0.7569    1.8727 O   0  0  0  0  0  0  0  0  0  0  0  0
    3.3269    2.0427    2.3937 C   0  0  0  0  0  0  0  0  0  0  0  0
    4.5807    1.9148    3.2567 C   0  0  0  0  0  0  0  0  0  0  0  0
    4.4582    1.1523    4.0190 H   0  0  0  0  0  0  0  0  0  0  0  0
    5.4202    1.6312    2.6271 H   0  0  0  0  0  0  0  0  0  0  0  0
    4.8050    2.8670    3.7297 H   0  0  0  0  0  0  0  0  0  0  0  0
    3.6256    2.9305    1.1798 C   0  0  0  0  0  0  0  0  0  0  0  0
    3.9048    3.9361    1.4797 H   0  0  0  0  0  0  0  0  0  0  0  0
    4.4458    2.4868    0.6202 H   0  0  0  0  0  0  0  0  0  0  0  0
    2.7520    2.9496    0.5332 H   0  0  0  0  0  0  0  0  0  0  0  0
    2.0369    2.4860    3.1637 C   0  0  0  0  0  0  0  0  0  0  0  0
    1.0198    1.6661    2.5706 O   0  0  0  0  0  0  0  0  0  0  0  0
    1.6603    3.9564    2.9939 C   0  0  0  0  0  0  0  0  0  0  0  0
    1.4313    4.1738    1.9560 H   0  0  0  0  0  0  0  0  0  0  0  0
    0.7771    4.1696    3.5910 H   0  0  0  0  0  0  0  0  0  0  0  0
    2.4733    4.5925    3.3329 H   0  0  0  0  0  0  0  0  0  0  0  0
    2.0799    2.1444    4.6586 C   0  0  0  0  0  0  0  0  0  0  0  0
    2.3053    1.0903    4.7981 H   0  0  0  0  0  0  0  0  0  0  0  0
    2.8176    2.7486    5.1775 H   0  0  0  0  0  0  0  0  0  0  0  0
    1.1009    2.3365    5.0917 H   0  0  0  0  0  0  0  0  0  0  0  0
    2.2782   -1.3309    0.1741 B   0  0  0  0  0  0  0  0  0  0  0  0
    3.0914   -2.3057    0.7121 O   0  0  0  0  0  0  0  0  0  0  0  0
    4.3794   -2.2863    0.0808 C   0  0  0  0  0  0  0  0  0  0  0  0
    5.3287   -1.5701    1.0473 C   0  0  0  0  0  0  0  0  0  0  0  0
    4.9178   -0.5932    1.2854 H   0  0  0  0  0  0  0  0  0  0  0  0
    5.3802   -2.1447    1.9688 H   0  0  0  0  0  0  0  0  0  0  0  0
    6.3272   -1.4781    0.6317 H   0  0  0  0  0  0  0  0  0  0  0  0
    4.8624   -3.7204   -0.1344 C   0  0  0  0  0  0  0  0  0  0  0  0
    4.9975   -4.1928    0.8351 H   0  0  0  0  0  0  0  0  0  0  0  0
    5.8123   -3.7194   -0.6612 H   0  0  0  0  0  0  0  0  0  0  0  0
    4.1380   -4.3030   -0.6937 H   0  0  0  0  0  0  0  0  0  0  0  0
    4.1092   -1.4711   -1.2330 C   0  0  0  0  0  0  0  0  0  0  0  0
    2.8705   -0.8018   -0.9469 O   0  0  0  0  0  0  0  0  0  0  0  0
    5.1737   -0.4290   -1.5710 C   0  0  0  0  0  0  0  0  0  0  0  0
    6.1427   -0.9046   -1.6933 H   0  0  0  0  0  0  0  0  0  0  0  0
    4.9048    0.0659   -2.5007 H   0  0  0  0  0  0  0  0  0  0  0  0
    5.2277    0.3222   -0.7909 H   0  0  0  0  0  0  0  0  0  0  0  0
    3.8685   -2.3599   -2.4607 C   0  0  0  0  0  0  0  0  0  0  0  0
    3.0847   -3.0830   -2.2536 H   0  0  0  0  0  0  0  0  0  0  0  0
    3.5355   -1.7320   -3.2836 H   0  0  0  0  0  0  0  0  0  0  0  0
    4.7780   -2.8750   -2.7544 H   0  0  0  0  0  0  0  0  0  0  0  0
   -3.3017   -3.5380   -3.0008 H   0  0  0  0  0  0  0  0  0  0  0  0
   -5.1917    1.4359    1.4167 H   0  0  0  0  0  0  0  0  0  0  0  0
    0.2359   -1.6814    2.9603 C   0  0  0  0  0  0  0  0  0  0  0  0
   -1.3471   -2.1896    3.4890 S   0  0  0  0  0  0  0  0  0  0  0  0
    1.0786   -1.6189    4.0297 C   0  0  0  0  0  0  0  0  0  0  0  0
   -0.8718   -2.2416    5.1357 C   0  0  0  0  0  0  0  0  0  0  0  0
    0.4524   -1.9115    5.2774 C   0  0  0  0  0  0  0  0  0  0  0  0
    2.1207   -1.3720    3.9359 H   0  0  0  0  0  0  0  0  0  0  0  0
   -1.5726   -2.5063    5.9021 H   0  0  0  0  0  0  0  0  0  0  0  0
    1.1190   -1.8759    6.5092 C   0  0  0  0  0  0  0  0  0  0  0  0
    1.6783   -1.8404    7.5134 N   0  0  0  0  0  0  0  0  0  0  0  0
  1  2  4  0  0  0  0
  2  3  4  0  0  0  0
  3  4  4  0  0  0  0
  4  5  4  0  0  0  0
  1  6  4  0  0  0  0
  5  6  4  0  0  0  0
  6  7  1  0  0  0  0
  5  8  1  0  0  0  0
  3  9  1  0  0  0  0
  2 10  1  0  0  0  0
 10 11  4  0  0  0  0
 11 12  4  0  0  0  0
 12 13  4  0  0  0  0
 13 14  4  0  0  0  0
 10 15  4  0  0  0  0
 14 15  4  0  0  0  0
 15 16  1  0  0  0  0
 13 17  1  0  0  0  0
 12 18  1  0  0  0  0
  1 19  1  0  0  0  0
 11 19  1  0  0  0  0
 19 20  1  0  0  0  0
 19 21  1  0  0  0  0
 21 22  1  0  0  0  0
 22 23  1  0  0  0  0
 23 24  1  0  0  0  0
 24 25  1  0  0  0  0
 24 26  1  0  0  0  0
 24 27  1  0  0  0  0
 23 28  1  0  0  0  0
 28 29  1  0  0  0  0
 28 30  1  0  0  0  0
 28 31  1  0  0  0  0
 23 32  1  0  0  0  0
 21 33  1  0  0  0  0
 32 33  1  0  0  0  0
 32 34  1  0  0  0  0
 34 35  1  0  0  0  0
 34 36  1  0  0  0  0
 34 37  1  0  0  0  0
 32 38  1  0  0  0  0
 38 39  1  0  0  0  0
 38 40  1  0  0  0  0
 38 41  1  0  0  0  0
 19 42  1  0  0  0  0
 42 43  1  0  0  0  0
 43 44  1  0  0  0  0
 44 45  1  0  0  0  0
 45 46  1  0  0  0  0
 45 47  1  0  0  0  0
 45 48  1  0  0  0  0
 44 49  1  0  0  0  0
 49 50  1  0  0  0  0
 49 51  1  0  0  0  0
 49 52  1  0  0  0  0
 44 53  1  0  0  0  0
 42 54  1  0  0  0  0
 53 54  1  0  0  0  0
 53 55  1  0  0  0  0
 55 56  1  0  0  0  0
 55 57  1  0  0  0  0
 55 58  1  0  0  0  0
 53 59  1  0  0  0  0
 59 60  1  0  0  0  0
 59 61  1  0  0  0  0
 59 62  1  0  0  0  0
 19 63  1  0  0  0  0
 63 64  1  0  0  0  0
 64 65  1  0  0  0  0
 65 66  1  0  0  0  0
 66 67  1  0  0  0  0
 66 68  1  0  0  0  0
 66 69  1  0  0  0  0
 65 70  1  0  0  0  0
 70 71  1  0  0  0  0
 70 72  1  0  0  0  0
 70 73  1  0  0  0  0
 65 74  1  0  0  0  0
 63 75  1  0  0  0  0
 74 75  1  0  0  0  0
 74 76  1  0  0  0  0
 76 77  1  0  0  0  0
 76 78  1  0  0  0  0
 76 79  1  0  0  0  0
 74 80  1  0  0  0  0
 80 81  1  0  0  0  0
 80 82  1  0  0  0  0
 80 83  1  0  0  0  0
  4 84  1  0  0  0  0
 14 85  1  0  0  0  0
 19 86  1  0  0  0  0
 20 86  1  0  0  0  0
 86 87  1  0  0  0  0
 86 88  2  0  0  0  0
 87 89  1  0  0  0  0
 88 90  1  0  0  0  0
 89 90  4  0  0  0  0
 88 91  1  0  0  0  0
 89 92  1  0  0  0  0
 90 93  1  0  0  0  0
 93 94  3  0  0  0  0
M  END
