
  xtb     01142213333D
 xtb: 6.4.1 (1a32961)
 99107  0     0  0            999 V2000
   -0.9273   -2.0351   -0.3312 N   0  0  0  0  0  0  0  0  0  0  0  0
   -2.1830   -1.5735   -0.4644 C   0  0  0  0  0  0  0  0  0  0  0  0
   -3.0870   -2.1925   -1.3370 C   0  0  0  0  0  0  0  0  0  0  0  0
   -2.6927   -3.2911   -2.0691 C   0  0  0  0  0  0  0  0  0  0  0  0
   -1.3902   -3.7592   -1.9172 C   0  0  0  0  0  0  0  0  0  0  0  0
   -0.5560   -3.0953   -1.0421 C   0  0  0  0  0  0  0  0  0  0  0  0
    0.4634   -3.4219   -0.8918 H   0  0  0  0  0  0  0  0  0  0  0  0
   -1.0384   -4.6177   -2.4660 H   0  0  0  0  0  0  0  0  0  0  0  0
   -4.0923   -1.8193   -1.4429 H   0  0  0  0  0  0  0  0  0  0  0  0
   -2.5357   -0.4164    0.3486 C   0  0  0  0  0  0  0  0  0  0  0  0
   -1.5722    0.0694    1.1577 N   0  0  0  0  0  0  0  0  0  0  0  0
   -1.8608    1.1001    1.9476 C   0  0  0  0  0  0  0  0  0  0  0  0
   -3.0963    1.7154    1.9788 C   0  0  0  0  0  0  0  0  0  0  0  0
   -4.0943    1.2426    1.1316 C   0  0  0  0  0  0  0  0  0  0  0  0
   -3.8058    0.1715    0.3130 C   0  0  0  0  0  0  0  0  0  0  0  0
   -4.5667   -0.2080   -0.3486 H   0  0  0  0  0  0  0  0  0  0  0  0
   -3.2767    2.5411    2.6481 H   0  0  0  0  0  0  0  0  0  0  0  0
   -1.0496    1.4431    2.5715 H   0  0  0  0  0  0  0  0  0  0  0  0
    0.4215   -0.8165    0.9133 Ir  0  0  0  0  0  0  0  0  0  0  0  0
    0.8726   -2.2303    1.5405 H   0  0  0  0  0  0  0  0  0  0  0  0
    0.4194    0.5710   -0.6401 B   0  0  0  0  0  0  0  0  0  0  0  0
   -0.1681    0.2388   -1.8469 O   0  0  0  0  0  0  0  0  0  0  0  0
   -0.2460    1.3929   -2.6903 C   0  0  0  0  0  0  0  0  0  0  0  0
    0.0876    1.0000   -4.1274 C   0  0  0  0  0  0  0  0  0  0  0  0
    1.0252    0.4557   -4.1661 H   0  0  0  0  0  0  0  0  0  0  0  0
    0.1509    1.8860   -4.7538 H   0  0  0  0  0  0  0  0  0  0  0  0
   -0.6972    0.3531   -4.5119 H   0  0  0  0  0  0  0  0  0  0  0  0
   -1.6950    1.8969   -2.6252 C   0  0  0  0  0  0  0  0  0  0  0  0
   -1.8445    2.7511   -3.2788 H   0  0  0  0  0  0  0  0  0  0  0  0
   -2.3567    1.0908   -2.9361 H   0  0  0  0  0  0  0  0  0  0  0  0
   -1.9508    2.1662   -1.6023 H   0  0  0  0  0  0  0  0  0  0  0  0
    0.7704    2.3751   -2.0193 C   0  0  0  0  0  0  0  0  0  0  0  0
    0.8404    1.8803   -0.6746 O   0  0  0  0  0  0  0  0  0  0  0  0
    2.1816    2.2501   -2.6066 C   0  0  0  0  0  0  0  0  0  0  0  0
    2.5093    1.2170   -2.5211 H   0  0  0  0  0  0  0  0  0  0  0  0
    2.2135    2.5804   -3.6408 H   0  0  0  0  0  0  0  0  0  0  0  0
    2.8596    2.8630   -2.0174 H   0  0  0  0  0  0  0  0  0  0  0  0
    0.3453    3.8421   -2.0159 C   0  0  0  0  0  0  0  0  0  0  0  0
   -0.5660    3.9879   -1.4445 H   0  0  0  0  0  0  0  0  0  0  0  0
    1.1305    4.4389   -1.5583 H   0  0  0  0  0  0  0  0  0  0  0  0
    0.1930    4.1869   -3.0355 H   0  0  0  0  0  0  0  0  0  0  0  0
    1.5875    0.6330    1.8670 B   0  0  0  0  0  0  0  0  0  0  0  0
    2.9595    0.7250    1.9038 O   0  0  0  0  0  0  0  0  0  0  0  0
    3.3523    2.0022    2.4276 C   0  0  0  0  0  0  0  0  0  0  0  0
    4.5920    1.8459    3.3063 C   0  0  0  0  0  0  0  0  0  0  0  0
    4.4424    1.0806    4.0604 H   0  0  0  0  0  0  0  0  0  0  0  0
    5.4342    1.5503    2.6859 H   0  0  0  0  0  0  0  0  0  0  0  0
    4.8282    2.7908    3.7882 H   0  0  0  0  0  0  0  0  0  0  0  0
    3.6840    2.8835    1.2175 C   0  0  0  0  0  0  0  0  0  0  0  0
    3.9825    3.8829    1.5198 H   0  0  0  0  0  0  0  0  0  0  0  0
    4.4989    2.4217    0.6648 H   0  0  0  0  0  0  0  0  0  0  0  0
    2.8170    2.9219    0.5629 H   0  0  0  0  0  0  0  0  0  0  0  0
    2.0630    2.4732    3.1811 C   0  0  0  0  0  0  0  0  0  0  0  0
    1.0357    1.6820    2.5683 O   0  0  0  0  0  0  0  0  0  0  0  0
    1.7268    3.9540    3.0148 C   0  0  0  0  0  0  0  0  0  0  0  0
    1.5124    4.1819    1.9761 H   0  0  0  0  0  0  0  0  0  0  0  0
    0.8438    4.1879    3.6045 H   0  0  0  0  0  0  0  0  0  0  0  0
    2.5531    4.5676    3.3633 H   0  0  0  0  0  0  0  0  0  0  0  0
    2.0768    2.1203    4.6740 C   0  0  0  0  0  0  0  0  0  0  0  0
    2.2726    1.0596    4.8029 H   0  0  0  0  0  0  0  0  0  0  0  0
    2.8201    2.7057    5.2064 H   0  0  0  0  0  0  0  0  0  0  0  0
    1.0951    2.3310    5.0917 H   0  0  0  0  0  0  0  0  0  0  0  0
    2.2782   -1.3309    0.1741 B   0  0  0  0  0  0  0  0  0  0  0  0
    3.0629   -2.3546    0.6670 O   0  0  0  0  0  0  0  0  0  0  0  0
    4.3636   -2.3209    0.0657 C   0  0  0  0  0  0  0  0  0  0  0  0
    5.2978   -1.6672    1.0898 C   0  0  0  0  0  0  0  0  0  0  0  0
    4.8938   -0.6965    1.3627 H   0  0  0  0  0  0  0  0  0  0  0  0
    5.3148   -2.2867    1.9830 H   0  0  0  0  0  0  0  0  0  0  0  0
    6.3084   -1.5711    0.7052 H   0  0  0  0  0  0  0  0  0  0  0  0
    4.8343   -3.7479   -0.2142 C   0  0  0  0  0  0  0  0  0  0  0  0
    4.9410   -4.2726    0.7315 H   0  0  0  0  0  0  0  0  0  0  0  0
    5.7959   -3.7319   -0.7193 H   0  0  0  0  0  0  0  0  0  0  0  0
    4.1157   -4.2898   -0.8199 H   0  0  0  0  0  0  0  0  0  0  0  0
    4.1324   -1.4346   -1.2079 C   0  0  0  0  0  0  0  0  0  0  0  0
    2.9056   -0.7528   -0.9049 O   0  0  0  0  0  0  0  0  0  0  0  0
    5.2267   -0.4035   -1.4775 C   0  0  0  0  0  0  0  0  0  0  0  0
    6.1864   -0.8962   -1.6063 H   0  0  0  0  0  0  0  0  0  0  0  0
    4.9864    0.1422   -2.3864 H   0  0  0  0  0  0  0  0  0  0  0  0
    5.2835    0.3074   -0.6607 H   0  0  0  0  0  0  0  0  0  0  0  0
    3.8895   -2.2551   -2.4821 C   0  0  0  0  0  0  0  0  0  0  0  0
    3.0810   -2.9635   -2.3232 H   0  0  0  0  0  0  0  0  0  0  0  0
    3.5885   -1.5782   -3.2782 H   0  0  0  0  0  0  0  0  0  0  0  0
    4.7890   -2.7815   -2.7864 H   0  0  0  0  0  0  0  0  0  0  0  0
   -3.3800   -3.7766   -2.7453 H   0  0  0  0  0  0  0  0  0  0  0  0
   -5.0726    1.6993    1.1162 H   0  0  0  0  0  0  0  0  0  0  0  0
    0.2359   -1.6814    2.9603 C   0  0  0  0  0  0  0  0  0  0  0  0
   -1.0299   -2.0523    3.3684 C   0  0  0  0  0  0  0  0  0  0  0  0
    1.1676   -1.5476    3.9994 C   0  0  0  0  0  0  0  0  0  0  0  0
   -1.3852   -2.1914    4.7076 C   0  0  0  0  0  0  0  0  0  0  0  0
   -2.1385   -2.3404    2.5831 O   0  0  0  0  0  0  0  0  0  0  0  0
    0.8241   -1.6926    5.3312 C   0  0  0  0  0  0  0  0  0  0  0  0
    2.1877   -1.3224    3.7307 H   0  0  0  0  0  0  0  0  0  0  0  0
   -0.4761   -2.0113    5.7215 C   0  0  0  0  0  0  0  0  0  0  0  0
   -2.7195   -2.5387    4.8015 O   0  0  0  0  0  0  0  0  0  0  0  0
   -3.1891   -2.6163    3.4736 C   0  0  0  0  0  0  0  0  0  0  0  0
    1.5764   -1.5650    6.0947 H   0  0  0  0  0  0  0  0  0  0  0  0
   -0.7577   -2.1240    6.7545 H   0  0  0  0  0  0  0  0  0  0  0  0
   -4.0015   -1.8821    3.3303 H   0  0  0  0  0  0  0  0  0  0  0  0
   -3.5805   -3.6291    3.2816 H   0  0  0  0  0  0  0  0  0  0  0  0
  1  2  4  0  0  0  0
  2  3  4  0  0  0  0
  3  4  4  0  0  0  0
  4  5  4  0  0  0  0
  1  6  4  0  0  0  0
  5  6  4  0  0  0  0
  6  7  1  0  0  0  0
  5  8  1  0  0  0  0
  3  9  1  0  0  0  0
  2 10  1  0  0  0  0
 10 11  4  0  0  0  0
 11 12  4  0  0  0  0
 12 13  4  0  0  0  0
 13 14  4  0  0  0  0
 10 15  4  0  0  0  0
 14 15  4  0  0  0  0
 15 16  1  0  0  0  0
 13 17  1  0  0  0  0
 12 18  1  0  0  0  0
  1 19  1  0  0  0  0
 11 19  1  0  0  0  0
 19 20  1  0  0  0  0
 19 21  1  0  0  0  0
 21 22  1  0  0  0  0
 22 23  1  0  0  0  0
 23 24  1  0  0  0  0
 24 25  1  0  0  0  0
 24 26  1  0  0  0  0
 24 27  1  0  0  0  0
 23 28  1  0  0  0  0
 28 29  1  0  0  0  0
 28 30  1  0  0  0  0
 28 31  1  0  0  0  0
 23 32  1  0  0  0  0
 21 33  1  0  0  0  0
 32 33  1  0  0  0  0
 32 34  1  0  0  0  0
 34 35  1  0  0  0  0
 34 36  1  0  0  0  0
 34 37  1  0  0  0  0
 32 38  1  0  0  0  0
 38 39  1  0  0  0  0
 38 40  1  0  0  0  0
 38 41  1  0  0  0  0
 19 42  1  0  0  0  0
 42 43  1  0  0  0  0
 43 44  1  0  0  0  0
 44 45  1  0  0  0  0
 45 46  1  0  0  0  0
 45 47  1  0  0  0  0
 45 48  1  0  0  0  0
 44 49  1  0  0  0  0
 49 50  1  0  0  0  0
 49 51  1  0  0  0  0
 49 52  1  0  0  0  0
 44 53  1  0  0  0  0
 42 54  1  0  0  0  0
 53 54  1  0  0  0  0
 53 55  1  0  0  0  0
 55 56  1  0  0  0  0
 55 57  1  0  0  0  0
 55 58  1  0  0  0  0
 53 59  1  0  0  0  0
 59 60  1  0  0  0  0
 59 61  1  0  0  0  0
 59 62  1  0  0  0  0
 19 63  1  0  0  0  0
 63 64  1  0  0  0  0
 64 65  1  0  0  0  0
 65 66  1  0  0  0  0
 66 67  1  0  0  0  0
 66 68  1  0  0  0  0
 66 69  1  0  0  0  0
 65 70  1  0  0  0  0
 70 71  1  0  0  0  0
 70 72  1  0  0  0  0
 70 73  1  0  0  0  0
 65 74  1  0  0  0  0
 63 75  1  0  0  0  0
 74 75  1  0  0  0  0
 74 76  1  0  0  0  0
 76 77  1  0  0  0  0
 76 78  1  0  0  0  0
 76 79  1  0  0  0  0
 74 80  1  0  0  0  0
 80 81  1  0  0  0  0
 80 82  1  0  0  0  0
 80 83  1  0  0  0  0
  4 84  1  0  0  0  0
 14 85  1  0  0  0  0
 19 86  1  0  0  0  0
 20 86  1  0  0  0  0
 86 87  4  0  0  0  0
 86 88  4  0  0  0  0
 87 89  4  0  0  0  0
 87 90  1  0  0  0  0
 88 91  4  0  0  0  0
 88 92  1  0  0  0  0
 89 93  4  0  0  0  0
 91 93  4  0  0  0  0
 89 94  1  0  0  0  0
 90 95  1  0  0  0  0
 94 95  1  0  0  0  0
 91 96  1  0  0  0  0
 93 97  1  0  0  0  0
 95 98  1  0  0  0  0
 95 99  1  0  0  0  0
M  END
