   10
Created with kallisto
C     -2.2635    0.0000   -0.0000
C     -1.5329   -1.1664    0.0000
C     -1.5332    1.1664   -0.0000
N     -0.1876   -1.1998   -0.0000
H     -2.0241   -2.1358   -0.0000
N     -0.1879    1.2003    0.0000
H     -2.0249    2.1358    0.0000
C      0.4272    0.0004   -0.0000
C      1.8656    0.0003    0.0000
N      3.0294    0.0000    0.0000
