
  xtb     01142215243D
 xtb: 6.4.1 (1a32961)
 96103  0     0  0            999 V2000
   -0.9479   -2.0262   -0.3613 N   0  0  0  0  0  0  0  0  0  0  0  0
   -2.1862   -1.5287   -0.5274 C   0  0  0  0  0  0  0  0  0  0  0  0
   -3.0463   -2.0493   -1.5014 C   0  0  0  0  0  0  0  0  0  0  0  0
   -2.6256   -3.0907   -2.3007 C   0  0  0  0  0  0  0  0  0  0  0  0
   -1.3451   -3.6013   -2.1109 C   0  0  0  0  0  0  0  0  0  0  0  0
   -0.5527   -3.0328   -1.1345 C   0  0  0  0  0  0  0  0  0  0  0  0
    0.4484   -3.3954   -0.9496 H   0  0  0  0  0  0  0  0  0  0  0  0
   -0.9764   -4.4177   -2.7101 H   0  0  0  0  0  0  0  0  0  0  0  0
   -4.0324   -1.6387   -1.6409 H   0  0  0  0  0  0  0  0  0  0  0  0
   -2.5633   -0.4239    0.3507 C   0  0  0  0  0  0  0  0  0  0  0  0
   -1.6037    0.0483    1.1717 N   0  0  0  0  0  0  0  0  0  0  0  0
   -1.9007    1.0508    1.9934 C   0  0  0  0  0  0  0  0  0  0  0  0
   -3.1481    1.6400    2.0561 C   0  0  0  0  0  0  0  0  0  0  0  0
   -4.1491    1.1653    1.2146 C   0  0  0  0  0  0  0  0  0  0  0  0
   -3.8493    0.1287    0.3559 C   0  0  0  0  0  0  0  0  0  0  0  0
   -4.6142   -0.2547   -0.2984 H   0  0  0  0  0  0  0  0  0  0  0  0
   -3.3363    2.4432    2.7496 H   0  0  0  0  0  0  0  0  0  0  0  0
   -1.0879    1.3905    2.6164 H   0  0  0  0  0  0  0  0  0  0  0  0
    0.4215   -0.8165    0.9133 Ir  0  0  0  0  0  0  0  0  0  0  0  0
    0.8726   -2.2303    1.5405 H   0  0  0  0  0  0  0  0  0  0  0  0
    0.4108    0.5760   -0.6370 B   0  0  0  0  0  0  0  0  0  0  0  0
   -0.1999    0.2656   -1.8378 O   0  0  0  0  0  0  0  0  0  0  0  0
   -0.2799    1.4336   -2.6628 C   0  0  0  0  0  0  0  0  0  0  0  0
    0.0142    1.0602   -4.1132 C   0  0  0  0  0  0  0  0  0  0  0  0
    0.9447    0.5072   -4.1849 H   0  0  0  0  0  0  0  0  0  0  0  0
    0.0719    1.9561   -4.7259 H   0  0  0  0  0  0  0  0  0  0  0  0
   -0.7872    0.4287   -4.4891 H   0  0  0  0  0  0  0  0  0  0  0  0
   -1.7190    1.9576   -2.5554 C   0  0  0  0  0  0  0  0  0  0  0  0
   -1.8690    2.8270   -3.1884 H   0  0  0  0  0  0  0  0  0  0  0  0
   -2.3998    1.1685   -2.8685 H   0  0  0  0  0  0  0  0  0  0  0  0
   -1.9476    2.2104   -1.5220 H   0  0  0  0  0  0  0  0  0  0  0  0
    0.7653    2.3903   -2.0004 C   0  0  0  0  0  0  0  0  0  0  0  0
    0.8502    1.8785   -0.6627 O   0  0  0  0  0  0  0  0  0  0  0  0
    2.1632    2.2460   -2.6142 C   0  0  0  0  0  0  0  0  0  0  0  0
    2.4712    1.2052   -2.5523 H   0  0  0  0  0  0  0  0  0  0  0  0
    2.1840    2.5933   -3.6431 H   0  0  0  0  0  0  0  0  0  0  0  0
    2.8638    2.8348   -2.0270 H   0  0  0  0  0  0  0  0  0  0  0  0
    0.3669    3.8644   -1.9731 C   0  0  0  0  0  0  0  0  0  0  0  0
   -0.5312    4.0201   -1.3835 H   0  0  0  0  0  0  0  0  0  0  0  0
    1.1711    4.4421   -1.5239 H   0  0  0  0  0  0  0  0  0  0  0  0
    0.2024    4.2233   -2.9859 H   0  0  0  0  0  0  0  0  0  0  0  0
    1.5810    0.6435    1.8521 B   0  0  0  0  0  0  0  0  0  0  0  0
    2.9484    0.7652    1.8762 O   0  0  0  0  0  0  0  0  0  0  0  0
    3.3177    2.0456    2.4105 C   0  0  0  0  0  0  0  0  0  0  0  0
    4.5580    1.9035    3.2908 C   0  0  0  0  0  0  0  0  0  0  0  0
    4.4172    1.1398    4.0485 H   0  0  0  0  0  0  0  0  0  0  0  0
    5.4036    1.6143    2.6721 H   0  0  0  0  0  0  0  0  0  0  0  0
    4.7846    2.8519    3.7703 H   0  0  0  0  0  0  0  0  0  0  0  0
    3.6395    2.9396    1.2073 C   0  0  0  0  0  0  0  0  0  0  0  0
    3.9154    3.9431    1.5173 H   0  0  0  0  0  0  0  0  0  0  0  0
    4.4682    2.4979    0.6588 H   0  0  0  0  0  0  0  0  0  0  0  0
    2.7765    2.9643    0.5469 H   0  0  0  0  0  0  0  0  0  0  0  0
    2.0189    2.4911    3.1657 C   0  0  0  0  0  0  0  0  0  0  0  0
    1.0073    1.6704    2.5644 O   0  0  0  0  0  0  0  0  0  0  0  0
    1.6442    3.9611    2.9865 C   0  0  0  0  0  0  0  0  0  0  0  0
    1.4248    4.1743    1.9458 H   0  0  0  0  0  0  0  0  0  0  0  0
    0.7548    4.1759    3.5738 H   0  0  0  0  0  0  0  0  0  0  0  0
    2.4530    4.5995    3.3310 H   0  0  0  0  0  0  0  0  0  0  0  0
    2.0454    2.1567    4.6621 C   0  0  0  0  0  0  0  0  0  0  0  0
    2.2757    1.1056    4.8102 H   0  0  0  0  0  0  0  0  0  0  0  0
    2.7718    2.7700    5.1865 H   0  0  0  0  0  0  0  0  0  0  0  0
    1.0591    2.3440    5.0805 H   0  0  0  0  0  0  0  0  0  0  0  0
    2.2782   -1.3309    0.1741 B   0  0  0  0  0  0  0  0  0  0  0  0
    3.0843   -2.3108    0.7136 O   0  0  0  0  0  0  0  0  0  0  0  0
    4.3802   -2.2866    0.1011 C   0  0  0  0  0  0  0  0  0  0  0  0
    5.3167   -1.5895    1.0937 C   0  0  0  0  0  0  0  0  0  0  0  0
    4.9049   -0.6154    1.3414 H   0  0  0  0  0  0  0  0  0  0  0  0
    5.3522   -2.1804    2.0056 H   0  0  0  0  0  0  0  0  0  0  0  0
    6.3219   -1.4933    0.6955 H   0  0  0  0  0  0  0  0  0  0  0  0
    4.8608   -3.7196   -0.1279 C   0  0  0  0  0  0  0  0  0  0  0  0
    4.9747   -4.2079    0.8363 H   0  0  0  0  0  0  0  0  0  0  0  0
    5.8207   -3.7156   -0.6364 H   0  0  0  0  0  0  0  0  0  0  0  0
    4.1445   -4.2896   -0.7101 H   0  0  0  0  0  0  0  0  0  0  0  0
    4.1320   -1.4510   -1.2049 C   0  0  0  0  0  0  0  0  0  0  0  0
    2.8848   -0.7917   -0.9339 O   0  0  0  0  0  0  0  0  0  0  0  0
    5.1977   -0.3977   -1.5022 C   0  0  0  0  0  0  0  0  0  0  0  0
    6.1717   -0.8658   -1.6141 H   0  0  0  0  0  0  0  0  0  0  0  0
    4.9448    0.1134   -2.4276 H   0  0  0  0  0  0  0  0  0  0  0  0
    5.2314    0.3389   -0.7072 H   0  0  0  0  0  0  0  0  0  0  0  0
    3.9223   -2.3196   -2.4524 C   0  0  0  0  0  0  0  0  0  0  0  0
    3.1331   -3.0451   -2.2771 H   0  0  0  0  0  0  0  0  0  0  0  0
    3.6108   -1.6782   -3.2733 H   0  0  0  0  0  0  0  0  0  0  0  0
    4.8387   -2.8306   -2.7314 H   0  0  0  0  0  0  0  0  0  0  0  0
   -3.2774   -3.4986   -3.0581 H   0  0  0  0  0  0  0  0  0  0  0  0
   -5.1393    1.5947    1.2325 H   0  0  0  0  0  0  0  0  0  0  0  0
    0.2359   -1.6814    2.9603 C   0  0  0  0  0  0  0  0  0  0  0  0
   -1.0496   -2.0629    3.3448 C   0  0  0  0  0  0  0  0  0  0  0  0
    1.2027   -1.5278    3.9555 C   0  0  0  0  0  0  0  0  0  0  0  0
   -1.3539   -2.1831    4.6861 C   0  0  0  0  0  0  0  0  0  0  0  0
   -1.8240   -2.2660    2.6215 H   0  0  0  0  0  0  0  0  0  0  0  0
    0.8636   -1.6662    5.2883 C   0  0  0  0  0  0  0  0  0  0  0  0
    2.2182   -1.3007    3.6739 H   0  0  0  0  0  0  0  0  0  0  0  0
   -2.6268   -2.5192    5.0419 F   0  0  0  0  0  0  0  0  0  0  0  0
   -0.4256   -1.9849    5.6900 C   0  0  0  0  0  0  0  0  0  0  0  0
    2.0782   -1.4483    6.5083 Cl  0  0  0  0  0  0  0  0  0  0  0  0
   -0.6962   -2.0891    6.7273 H   0  0  0  0  0  0  0  0  0  0  0  0
  1  2  4  0  0  0  0
  2  3  4  0  0  0  0
  3  4  4  0  0  0  0
  4  5  4  0  0  0  0
  1  6  4  0  0  0  0
  5  6  4  0  0  0  0
  6  7  1  0  0  0  0
  5  8  1  0  0  0  0
  3  9  1  0  0  0  0
  2 10  1  0  0  0  0
 10 11  4  0  0  0  0
 11 12  4  0  0  0  0
 12 13  4  0  0  0  0
 13 14  4  0  0  0  0
 10 15  4  0  0  0  0
 14 15  4  0  0  0  0
 15 16  1  0  0  0  0
 13 17  1  0  0  0  0
 12 18  1  0  0  0  0
  1 19  1  0  0  0  0
 11 19  1  0  0  0  0
 19 20  1  0  0  0  0
 19 21  1  0  0  0  0
 21 22  1  0  0  0  0
 22 23  1  0  0  0  0
 23 24  1  0  0  0  0
 24 25  1  0  0  0  0
 24 26  1  0  0  0  0
 24 27  1  0  0  0  0
 23 28  1  0  0  0  0
 28 29  1  0  0  0  0
 28 30  1  0  0  0  0
 28 31  1  0  0  0  0
 23 32  1  0  0  0  0
 21 33  1  0  0  0  0
 32 33  1  0  0  0  0
 32 34  1  0  0  0  0
 34 35  1  0  0  0  0
 34 36  1  0  0  0  0
 34 37  1  0  0  0  0
 32 38  1  0  0  0  0
 38 39  1  0  0  0  0
 38 40  1  0  0  0  0
 38 41  1  0  0  0  0
 19 42  1  0  0  0  0
 42 43  1  0  0  0  0
 43 44  1  0  0  0  0
 44 45  1  0  0  0  0
 45 46  1  0  0  0  0
 45 47  1  0  0  0  0
 45 48  1  0  0  0  0
 44 49  1  0  0  0  0
 49 50  1  0  0  0  0
 49 51  1  0  0  0  0
 49 52  1  0  0  0  0
 44 53  1  0  0  0  0
 42 54  1  0  0  0  0
 53 54  1  0  0  0  0
 53 55  1  0  0  0  0
 55 56  1  0  0  0  0
 55 57  1  0  0  0  0
 55 58  1  0  0  0  0
 53 59  1  0  0  0  0
 59 60  1  0  0  0  0
 59 61  1  0  0  0  0
 59 62  1  0  0  0  0
 19 63  1  0  0  0  0
 63 64  1  0  0  0  0
 64 65  1  0  0  0  0
 65 66  1  0  0  0  0
 66 67  1  0  0  0  0
 66 68  1  0  0  0  0
 66 69  1  0  0  0  0
 65 70  1  0  0  0  0
 70 71  1  0  0  0  0
 70 72  1  0  0  0  0
 70 73  1  0  0  0  0
 65 74  1  0  0  0  0
 63 75  1  0  0  0  0
 74 75  1  0  0  0  0
 74 76  1  0  0  0  0
 76 77  1  0  0  0  0
 76 78  1  0  0  0  0
 76 79  1  0  0  0  0
 74 80  1  0  0  0  0
 80 81  1  0  0  0  0
 80 82  1  0  0  0  0
 80 83  1  0  0  0  0
  4 84  1  0  0  0  0
 14 85  1  0  0  0  0
 19 86  1  0  0  0  0
 20 86  1  0  0  0  0
 86 87  4  0  0  0  0
 86 88  4  0  0  0  0
 87 89  4  0  0  0  0
 87 90  1  0  0  0  0
 88 91  4  0  0  0  0
 88 92  1  0  0  0  0
 89 93  1  0  0  0  0
 89 94  4  0  0  0  0
 91 94  4  0  0  0  0
 91 95  1  0  0  0  0
 94 96  1  0  0  0  0
M  END
