    8
Created with kallisto
C     -0.3703    1.0749    0.0023
C      1.0019    0.7653   -0.0009
N     -1.1374   -0.0180    0.0033
C      1.0472   -0.6081   -0.0013
H      1.8390    1.4485   -0.0023
N     -0.2513   -1.0281    0.0011
H      1.8686   -1.3098   -0.0029
H     -0.6053   -1.9791    0.0018
