   20
Created with kallisto
C     -0.8702    1.4408   -0.0004
C      0.2762    0.6583    0.0008
C     -2.0871    0.7412   -0.0007
C      0.2838   -0.7262    0.0015
O      1.5721    1.0848    0.0009
C     -2.1279   -0.6613    0.0005
H     -2.9988    1.3315   -0.0018
N      1.5778   -1.1840    0.0020
C     -0.9382   -1.4089    0.0013
C      2.2976   -0.0783    0.0018
O     -3.2671   -1.4233    0.0013
H     -0.9583   -2.4930    0.0021
C      3.7660    0.0669    0.0018
C     -4.5089   -0.7304    0.0011
H      4.2498   -0.9144    0.0014
H      4.0978    0.6118    0.8907
H      4.0979    0.6126   -0.8862
H     -5.3093   -1.4764    0.0079
H     -4.6231   -0.1274   -0.9058
H     -4.6185   -0.1167    0.9014
