
  xtb     01142215043D
 xtb: 6.4.1 (1a32961)
 98105  0     0  0            999 V2000
   -0.9456   -1.9224   -0.4741 N   0  0  0  0  0  0  0  0  0  0  0  0
   -2.1427   -1.3525   -0.6857 C   0  0  0  0  0  0  0  0  0  0  0  0
   -3.0222   -1.8643   -1.6457 C   0  0  0  0  0  0  0  0  0  0  0  0
   -2.6516   -2.9588   -2.3986 C   0  0  0  0  0  0  0  0  0  0  0  0
   -1.4011   -3.5256   -2.1804 C   0  0  0  0  0  0  0  0  0  0  0  0
   -0.5937   -2.9708   -1.2076 C   0  0  0  0  0  0  0  0  0  0  0  0
    0.3800   -3.3851   -0.9897 H   0  0  0  0  0  0  0  0  0  0  0  0
   -1.0684   -4.3803   -2.7461 H   0  0  0  0  0  0  0  0  0  0  0  0
   -3.9902   -1.4173   -1.7988 H   0  0  0  0  0  0  0  0  0  0  0  0
   -2.4653   -0.1903    0.1401 C   0  0  0  0  0  0  0  0  0  0  0  0
   -1.5585    0.1575    1.0755 N   0  0  0  0  0  0  0  0  0  0  0  0
   -1.8237    1.1908    1.8720 C   0  0  0  0  0  0  0  0  0  0  0  0
   -2.9780    1.9426    1.7843 C   0  0  0  0  0  0  0  0  0  0  0  0
   -3.9088    1.6155    0.8048 C   0  0  0  0  0  0  0  0  0  0  0  0
   -3.6459    0.5412   -0.0199 C   0  0  0  0  0  0  0  0  0  0  0  0
   -4.3550    0.2758   -0.7855 H   0  0  0  0  0  0  0  0  0  0  0  0
   -3.1448    2.7631    2.4628 H   0  0  0  0  0  0  0  0  0  0  0  0
   -1.0622    1.4185    2.6030 H   0  0  0  0  0  0  0  0  0  0  0  0
    0.4215   -0.8165    0.9133 Ir  0  0  0  0  0  0  0  0  0  0  0  0
    0.8726   -2.2303    1.5405 H   0  0  0  0  0  0  0  0  0  0  0  0
    0.4506    0.6014   -0.6189 B   0  0  0  0  0  0  0  0  0  0  0  0
   -0.0301    0.2612   -1.8633 O   0  0  0  0  0  0  0  0  0  0  0  0
   -0.0762    1.4198   -2.7072 C   0  0  0  0  0  0  0  0  0  0  0  0
    0.3974    1.0430   -4.1084 C   0  0  0  0  0  0  0  0  0  0  0  0
    1.3523    0.5306   -4.0620 H   0  0  0  0  0  0  0  0  0  0  0  0
    0.4862    1.9320   -4.7270 H   0  0  0  0  0  0  0  0  0  0  0  0
   -0.3279    0.3706   -4.5599 H   0  0  0  0  0  0  0  0  0  0  0  0
   -1.5404    1.8753   -2.7722 C   0  0  0  0  0  0  0  0  0  0  0  0
   -1.6557    2.7224   -3.4415 H   0  0  0  0  0  0  0  0  0  0  0  0
   -2.1458    1.0484   -3.1377 H   0  0  0  0  0  0  0  0  0  0  0  0
   -1.8962    2.1409   -1.7788 H   0  0  0  0  0  0  0  0  0  0  0  0
    0.8418    2.4303   -1.9438 C   0  0  0  0  0  0  0  0  0  0  0  0
    0.8021    1.9289   -0.5965 O   0  0  0  0  0  0  0  0  0  0  0  0
    2.3020    2.3477   -2.4018 C   0  0  0  0  0  0  0  0  0  0  0  0
    2.6488    1.3230   -2.2936 H   0  0  0  0  0  0  0  0  0  0  0  0
    2.4140    2.6861   -3.4275 H   0  0  0  0  0  0  0  0  0  0  0  0
    2.9089    2.9744   -1.7537 H   0  0  0  0  0  0  0  0  0  0  0  0
    0.3733    3.8830   -1.9752 C   0  0  0  0  0  0  0  0  0  0  0  0
   -0.5929    3.9986   -1.4942 H   0  0  0  0  0  0  0  0  0  0  0  0
    1.0928    4.5012   -1.4440 H   0  0  0  0  0  0  0  0  0  0  0  0
    0.3093    4.2278   -3.0038 H   0  0  0  0  0  0  0  0  0  0  0  0
    1.6101    0.6589    1.8128 B   0  0  0  0  0  0  0  0  0  0  0  0
    2.8898    1.0390    1.5295 O   0  0  0  0  0  0  0  0  0  0  0  0
    3.2591    2.2121    2.2722 C   0  0  0  0  0  0  0  0  0  0  0  0
    4.5919    1.9481    2.9767 C   0  0  0  0  0  0  0  0  0  0  0  0
    4.5355    1.0608    3.5986 H   0  0  0  0  0  0  0  0  0  0  0  0
    5.3593    1.7832    2.2245 H   0  0  0  0  0  0  0  0  0  0  0  0
    4.8757    2.8037    3.5821 H   0  0  0  0  0  0  0  0  0  0  0  0
    3.4501    3.3371    1.2496 C   0  0  0  0  0  0  0  0  0  0  0  0
    3.6880    4.2785    1.7350 H   0  0  0  0  0  0  0  0  0  0  0  0
    4.2691    3.0636    0.5883 H   0  0  0  0  0  0  0  0  0  0  0  0
    2.5513    3.4362    0.6488 H   0  0  0  0  0  0  0  0  0  0  0  0
    2.0379    2.4321    3.2434 C   0  0  0  0  0  0  0  0  0  0  0  0
    1.0847    1.4478    2.8077 O   0  0  0  0  0  0  0  0  0  0  0  0
    1.3766    3.8079    3.1295 C   0  0  0  0  0  0  0  0  0  0  0  0
    1.0063    3.9718    2.1225 H   0  0  0  0  0  0  0  0  0  0  0  0
    0.5323    3.8479    3.8135 H   0  0  0  0  0  0  0  0  0  0  0  0
    2.0788    4.5917    3.3967 H   0  0  0  0  0  0  0  0  0  0  0  0
    2.3488    2.1558    4.7182 C   0  0  0  0  0  0  0  0  0  0  0  0
    2.7194    1.1451    4.8554 H   0  0  0  0  0  0  0  0  0  0  0  0
    3.0743    2.8681    5.0978 H   0  0  0  0  0  0  0  0  0  0  0  0
    1.4296    2.2511    5.2910 H   0  0  0  0  0  0  0  0  0  0  0  0
    2.2782   -1.3309    0.1741 B   0  0  0  0  0  0  0  0  0  0  0  0
    3.1142   -2.2771    0.7229 O   0  0  0  0  0  0  0  0  0  0  0  0
    4.3719   -2.2844    0.0314 C   0  0  0  0  0  0  0  0  0  0  0  0
    5.3426   -1.4579    0.8807 C   0  0  0  0  0  0  0  0  0  0  0  0
    4.9368   -0.4583    1.0099 H   0  0  0  0  0  0  0  0  0  0  0  0
    5.4175   -1.9163    1.8637 H   0  0  0  0  0  0  0  0  0  0  0  0
    6.3290   -1.4162    0.4299 H   0  0  0  0  0  0  0  0  0  0  0  0
    4.8826   -3.7189   -0.0843 C   0  0  0  0  0  0  0  0  0  0  0  0
    5.1033   -4.0928    0.9120 H   0  0  0  0  0  0  0  0  0  0  0  0
    5.7903   -3.7444   -0.6805 H   0  0  0  0  0  0  0  0  0  0  0  0
    4.1371   -4.3689   -0.5303 H   0  0  0  0  0  0  0  0  0  0  0  0
    4.0126   -1.5906   -1.3262 C   0  0  0  0  0  0  0  0  0  0  0  0
    2.8143   -0.8628   -1.0013 O   0  0  0  0  0  0  0  0  0  0  0  0
    5.0722   -0.6253   -1.8514 C   0  0  0  0  0  0  0  0  0  0  0  0
    6.0225   -1.1396   -1.9633 H   0  0  0  0  0  0  0  0  0  0  0  0
    4.7632   -0.2463   -2.8224 H   0  0  0  0  0  0  0  0  0  0  0  0
    5.1874    0.2162   -1.1769 H   0  0  0  0  0  0  0  0  0  0  0  0
    3.6450   -2.5907   -2.4300 C   0  0  0  0  0  0  0  0  0  0  0  0
    2.8828   -3.2780   -2.0730 H   0  0  0  0  0  0  0  0  0  0  0  0
    3.2333   -2.0424   -3.2739 H   0  0  0  0  0  0  0  0  0  0  0  0
    4.5182   -3.1460   -2.7580 H   0  0  0  0  0  0  0  0  0  0  0  0
   -3.3224   -3.3653   -3.1402 H   0  0  0  0  0  0  0  0  0  0  0  0
   -4.8179    2.1857    0.6899 H   0  0  0  0  0  0  0  0  0  0  0  0
    0.2359   -1.6814    2.9603 C   0  0  0  0  0  0  0  0  0  0  0  0
   -0.9977   -2.0837    3.4990 C   0  0  0  0  0  0  0  0  0  0  0  0
    1.1864   -1.4142    3.9728 C   0  0  0  0  0  0  0  0  0  0  0  0
   -1.2905   -1.9340    4.8591 C   0  0  0  0  0  0  0  0  0  0  0  0
   -2.0565   -2.7729    2.6920 C   0  0  0  0  0  0  0  0  0  0  0  0
    0.9372   -1.2695    5.2492 N   0  0  0  0  0  0  0  0  0  0  0  0
    2.8467   -1.3239    3.5647 Cl  0  0  0  0  0  0  0  0  0  0  0  0
   -0.3007   -1.4532    5.6890 C   0  0  0  0  0  0  0  0  0  0  0  0
   -2.2597   -2.2081    5.2444 H   0  0  0  0  0  0  0  0  0  0  0  0
   -2.7159   -3.6986    3.4291 F   0  0  0  0  0  0  0  0  0  0  0  0
   -3.0362   -1.9619    2.2304 F   0  0  0  0  0  0  0  0  0  0  0  0
   -1.5946   -3.4497    1.6325 F   0  0  0  0  0  0  0  0  0  0  0  0
   -0.4624   -1.2639    6.7385 H   0  0  0  0  0  0  0  0  0  0  0  0
  1  2  4  0  0  0  0
  2  3  4  0  0  0  0
  3  4  4  0  0  0  0
  4  5  4  0  0  0  0
  1  6  4  0  0  0  0
  5  6  4  0  0  0  0
  6  7  1  0  0  0  0
  5  8  1  0  0  0  0
  3  9  1  0  0  0  0
  2 10  1  0  0  0  0
 10 11  4  0  0  0  0
 11 12  4  0  0  0  0
 12 13  4  0  0  0  0
 13 14  4  0  0  0  0
 10 15  4  0  0  0  0
 14 15  4  0  0  0  0
 15 16  1  0  0  0  0
 13 17  1  0  0  0  0
 12 18  1  0  0  0  0
  1 19  1  0  0  0  0
 11 19  1  0  0  0  0
 19 20  1  0  0  0  0
 19 21  1  0  0  0  0
 21 22  1  0  0  0  0
 22 23  1  0  0  0  0
 23 24  1  0  0  0  0
 24 25  1  0  0  0  0
 24 26  1  0  0  0  0
 24 27  1  0  0  0  0
 23 28  1  0  0  0  0
 28 29  1  0  0  0  0
 28 30  1  0  0  0  0
 28 31  1  0  0  0  0
 23 32  1  0  0  0  0
 21 33  1  0  0  0  0
 32 33  1  0  0  0  0
 32 34  1  0  0  0  0
 34 35  1  0  0  0  0
 34 36  1  0  0  0  0
 34 37  1  0  0  0  0
 32 38  1  0  0  0  0
 38 39  1  0  0  0  0
 38 40  1  0  0  0  0
 38 41  1  0  0  0  0
 19 42  1  0  0  0  0
 42 43  1  0  0  0  0
 43 44  1  0  0  0  0
 44 45  1  0  0  0  0
 45 46  1  0  0  0  0
 45 47  1  0  0  0  0
 45 48  1  0  0  0  0
 44 49  1  0  0  0  0
 49 50  1  0  0  0  0
 49 51  1  0  0  0  0
 49 52  1  0  0  0  0
 44 53  1  0  0  0  0
 42 54  1  0  0  0  0
 53 54  1  0  0  0  0
 53 55  1  0  0  0  0
 55 56  1  0  0  0  0
 55 57  1  0  0  0  0
 55 58  1  0  0  0  0
 53 59  1  0  0  0  0
 59 60  1  0  0  0  0
 59 61  1  0  0  0  0
 59 62  1  0  0  0  0
 19 63  1  0  0  0  0
 63 64  1  0  0  0  0
 64 65  1  0  0  0  0
 65 66  1  0  0  0  0
 66 67  1  0  0  0  0
 66 68  1  0  0  0  0
 66 69  1  0  0  0  0
 65 70  1  0  0  0  0
 70 71  1  0  0  0  0
 70 72  1  0  0  0  0
 70 73  1  0  0  0  0
 65 74  1  0  0  0  0
 63 75  1  0  0  0  0
 74 75  1  0  0  0  0
 74 76  1  0  0  0  0
 76 77  1  0  0  0  0
 76 78  1  0  0  0  0
 76 79  1  0  0  0  0
 74 80  1  0  0  0  0
 80 81  1  0  0  0  0
 80 82  1  0  0  0  0
 80 83  1  0  0  0  0
  4 84  1  0  0  0  0
 14 85  1  0  0  0  0
 19 86  1  0  0  0  0
 20 86  1  0  0  0  0
 86 87  4  0  0  0  0
 86 88  4  0  0  0  0
 87 89  4  0  0  0  0
 87 90  1  0  0  0  0
 88 91  4  0  0  0  0
 88 92  1  0  0  0  0
 89 93  4  0  0  0  0
 91 93  4  0  0  0  0
 89 94  1  0  0  0  0
 90 95  1  0  0  0  0
 90 96  1  0  0  0  0
 90 97  1  0  0  0  0
 93 98  1  0  0  0  0
M  END
