   12

C         -0.07328       -1.13353       -0.00356
C         -1.39488       -0.74605       -0.00549
C         -1.41922        0.66952       -0.00543
C         -0.11145        1.10341       -0.00304
N          0.69711       -0.00077       -0.01004
C          2.14126        0.01220       -0.03141
H          0.37550       -2.11822       -0.00256
H         -2.24890       -1.41039       -0.00717
H          0.29926        2.10452       -0.00185
H          2.49948        1.04359        0.01417
H          2.47399       -0.45792       -0.96089
H          2.50475       -0.54712        0.83362
