
  xtb     01142213043D
 xtb: 6.4.1 (1a32961)
 18 19  0     0  0            999 V2000
    1.3608    1.4269   -0.0007 C   0  0  0  0  0  0  0  0  0  0  0  0
    0.1650    0.7283    0.0002 C   0  0  0  0  0  0  0  0  0  0  0  0
    0.1243   -0.6867   -0.0008 C   0  0  0  0  0  0  0  0  0  0  0  0
   -1.1860   -1.1040    0.0004 N   0  0  0  0  0  0  0  0  0  0  0  0
   -1.9066   -0.0195    0.0019 C   0  0  0  0  0  0  0  0  0  0  0  0
   -1.1494    1.1216    0.0020 N   0  0  0  0  0  0  0  0  0  0  0  0
   -3.3889    0.0247    0.0032 C   0  0  0  0  0  0  0  0  0  0  0  0
    1.3062   -1.4183   -0.0026 C   0  0  0  0  0  0  0  0  0  0  0  0
    2.4943   -0.7158   -0.0035 C   0  0  0  0  0  0  0  0  0  0  0  0
    2.5230    0.6800   -0.0026 C   0  0  0  0  0  0  0  0  0  0  0  0
    1.3846    2.5064    0.0000 H   0  0  0  0  0  0  0  0  0  0  0  0
   -1.4923    2.0674    0.0030 H   0  0  0  0  0  0  0  0  0  0  0  0
   -3.7730   -0.9903    0.0006 H   0  0  0  0  0  0  0  0  0  0  0  0
   -3.7530    0.5496   -0.8789 H   0  0  0  0  0  0  0  0  0  0  0  0
   -3.7517    0.5444    0.8890 H   0  0  0  0  0  0  0  0  0  0  0  0
    1.2836   -2.4965   -0.0035 H   0  0  0  0  0  0  0  0  0  0  0  0
    3.4298   -1.2562   -0.0050 H   0  0  0  0  0  0  0  0  0  0  0  0
    3.4773    1.1861   -0.0034 H   0  0  0  0  0  0  0  0  0  0  0  0
  1  2  4  0  0  0  0
  2  3  4  0  0  0  0
  3  4  4  0  0  0  0
  4  5  2  0  0  0  0
  2  6  1  0  0  0  0
  5  6  4  0  0  0  0
  5  7  1  0  0  0  0
  3  8  4  0  0  0  0
  8  9  4  0  0  0  0
  1 10  4  0  0  0  0
  9 10  4  0  0  0  0
  1 11  1  0  0  0  0
  6 12  1  0  0  0  0
  7 13  1  0  0  0  0
  7 14  1  0  0  0  0
  7 15  1  0  0  0  0
  8 16  1  0  0  0  0
  9 17  1  0  0  0  0
 10 18  1  0  0  0  0
M  END
