
  xtb     01142214173D
 xtb: 6.4.1 (1a32961)
100108  0     0  0            999 V2000
   -0.9400   -2.0151   -0.3882 N   0  0  0  0  0  0  0  0  0  0  0  0
   -2.1795   -1.5142   -0.5531 C   0  0  0  0  0  0  0  0  0  0  0  0
   -3.0180   -1.9854   -1.5704 C   0  0  0  0  0  0  0  0  0  0  0  0
   -2.5770   -2.9801   -2.4156 C   0  0  0  0  0  0  0  0  0  0  0  0
   -1.2967   -3.4950   -2.2281 C   0  0  0  0  0  0  0  0  0  0  0  0
   -0.5262   -2.9777   -1.2078 C   0  0  0  0  0  0  0  0  0  0  0  0
    0.4732   -3.3458   -1.0235 H   0  0  0  0  0  0  0  0  0  0  0  0
   -0.9123   -4.2760   -2.8637 H   0  0  0  0  0  0  0  0  0  0  0  0
   -4.0022   -1.5685   -1.7078 H   0  0  0  0  0  0  0  0  0  0  0  0
   -2.5738   -0.4569    0.3709 C   0  0  0  0  0  0  0  0  0  0  0  0
   -1.6172   -0.0047    1.2097 N   0  0  0  0  0  0  0  0  0  0  0  0
   -1.9260    0.9596    2.0737 C   0  0  0  0  0  0  0  0  0  0  0  0
   -3.1807    1.5282    2.1616 C   0  0  0  0  0  0  0  0  0  0  0  0
   -4.1792    1.0719    1.3050 C   0  0  0  0  0  0  0  0  0  0  0  0
   -3.8688    0.0745    0.4053 C   0  0  0  0  0  0  0  0  0  0  0  0
   -4.6310   -0.2976   -0.2591 H   0  0  0  0  0  0  0  0  0  0  0  0
   -3.3774    2.3021    2.8856 H   0  0  0  0  0  0  0  0  0  0  0  0
   -1.1166    1.2824    2.7103 H   0  0  0  0  0  0  0  0  0  0  0  0
    0.4215   -0.8165    0.9133 Ir  0  0  0  0  0  0  0  0  0  0  0  0
    0.8726   -2.2303    1.5405 H   0  0  0  0  0  0  0  0  0  0  0  0
    0.3730    0.6096   -0.6072 B   0  0  0  0  0  0  0  0  0  0  0  0
   -0.3215    0.3375   -1.7756 O   0  0  0  0  0  0  0  0  0  0  0  0
   -0.4643    1.5329   -2.5485 C   0  0  0  0  0  0  0  0  0  0  0  0
   -0.3012    1.2123   -4.0319 C   0  0  0  0  0  0  0  0  0  0  0  0
    0.6120    0.6532   -4.2067 H   0  0  0  0  0  0  0  0  0  0  0  0
   -0.2846    2.1307   -4.6132 H   0  0  0  0  0  0  0  0  0  0  0  0
   -1.1407    0.6037   -4.3600 H   0  0  0  0  0  0  0  0  0  0  0  0
   -1.8849    2.0607   -2.2978 C   0  0  0  0  0  0  0  0  0  0  0  0
   -2.0861    2.9470   -2.8921 H   0  0  0  0  0  0  0  0  0  0  0  0
   -2.5973    1.2832   -2.5674 H   0  0  0  0  0  0  0  0  0  0  0  0
   -2.0177    2.2881   -1.2417 H   0  0  0  0  0  0  0  0  0  0  0  0
    0.6393    2.4601   -1.9440 C   0  0  0  0  0  0  0  0  0  0  0  0
    0.8186    1.9110   -0.6319 O   0  0  0  0  0  0  0  0  0  0  0  0
    1.9838    2.3185   -2.6679 C   0  0  0  0  0  0  0  0  0  0  0  0
    2.2777    1.2715   -2.6712 H   0  0  0  0  0  0  0  0  0  0  0  0
    1.9326    2.7055   -3.6816 H   0  0  0  0  0  0  0  0  0  0  0  0
    2.7376    2.8722   -2.1130 H   0  0  0  0  0  0  0  0  0  0  0  0
    0.2612    3.9366   -1.8481 C   0  0  0  0  0  0  0  0  0  0  0  0
   -0.5815    4.0848   -1.1799 H   0  0  0  0  0  0  0  0  0  0  0  0
    1.1070    4.4964   -1.4561 H   0  0  0  0  0  0  0  0  0  0  0  0
    0.0139    4.3216   -2.8343 H   0  0  0  0  0  0  0  0  0  0  0  0
    1.5706    0.6462    1.8589 B   0  0  0  0  0  0  0  0  0  0  0  0
    2.9353    0.7976    1.8605 O   0  0  0  0  0  0  0  0  0  0  0  0
    3.2836    2.0837    2.3944 C   0  0  0  0  0  0  0  0  0  0  0  0
    4.5455    1.9694    3.2475 C   0  0  0  0  0  0  0  0  0  0  0  0
    4.4433    1.1888    3.9940 H   0  0  0  0  0  0  0  0  0  0  0  0
    5.3875    1.7176    2.6077 H   0  0  0  0  0  0  0  0  0  0  0  0
    4.7505    2.9174    3.7375 H   0  0  0  0  0  0  0  0  0  0  0  0
    3.5567    2.9946    1.1914 C   0  0  0  0  0  0  0  0  0  0  0  0
    3.8179    4.0015    1.5034 H   0  0  0  0  0  0  0  0  0  0  0  0
    4.3815    2.5756    0.6194 H   0  0  0  0  0  0  0  0  0  0  0  0
    2.6783    3.0055    0.5514 H   0  0  0  0  0  0  0  0  0  0  0  0
    1.9902    2.4905    3.1789 C   0  0  0  0  0  0  0  0  0  0  0  0
    0.9849    1.6656    2.5750 O   0  0  0  0  0  0  0  0  0  0  0  0
    1.5896    3.9581    3.0406 C   0  0  0  0  0  0  0  0  0  0  0  0
    1.3494    4.1925    2.0089 H   0  0  0  0  0  0  0  0  0  0  0  0
    0.7075    4.1452    3.6478 H   0  0  0  0  0  0  0  0  0  0  0  0
    2.3947    4.6011    3.3858 H   0  0  0  0  0  0  0  0  0  0  0  0
    2.0480    2.1181    4.6658 C   0  0  0  0  0  0  0  0  0  0  0  0
    2.2825    1.0631    4.7749 H   0  0  0  0  0  0  0  0  0  0  0  0
    2.7830    2.7194    5.1921 H   0  0  0  0  0  0  0  0  0  0  0  0
    1.0695    2.2883    5.1085 H   0  0  0  0  0  0  0  0  0  0  0  0
    2.2782   -1.3309    0.1741 B   0  0  0  0  0  0  0  0  0  0  0  0
    3.1160   -2.2928    0.6942 O   0  0  0  0  0  0  0  0  0  0  0  0
    4.3988   -2.2343    0.0576 C   0  0  0  0  0  0  0  0  0  0  0  0
    5.3346   -1.5087    1.0303 C   0  0  0  0  0  0  0  0  0  0  0  0
    4.8989   -0.5469    1.2853 H   0  0  0  0  0  0  0  0  0  0  0  0
    5.4044   -2.0962    1.9422 H   0  0  0  0  0  0  0  0  0  0  0  0
    6.3284   -1.3842    0.6113 H   0  0  0  0  0  0  0  0  0  0  0  0
    4.9152   -3.6537   -0.1782 C   0  0  0  0  0  0  0  0  0  0  0  0
    5.0600   -4.1366    0.7846 H   0  0  0  0  0  0  0  0  0  0  0  0
    5.8653   -3.6232   -0.7042 H   0  0  0  0  0  0  0  0  0  0  0  0
    4.2049   -4.2448   -0.7466 H   0  0  0  0  0  0  0  0  0  0  0  0
    4.1047   -1.4085   -1.2454 C   0  0  0  0  0  0  0  0  0  0  0  0
    2.8468   -0.7827   -0.9524 O   0  0  0  0  0  0  0  0  0  0  0  0
    5.1346   -0.3261   -1.5647 C   0  0  0  0  0  0  0  0  0  0  0  0
    6.1183   -0.7666   -1.7011 H   0  0  0  0  0  0  0  0  0  0  0  0
    4.8446    0.1796   -2.4824 H   0  0  0  0  0  0  0  0  0  0  0  0
    5.1661    0.4099   -0.7690 H   0  0  0  0  0  0  0  0  0  0  0  0
    3.8983   -2.2851   -2.4882 C   0  0  0  0  0  0  0  0  0  0  0  0
    3.1324   -3.0320   -2.2990 H   0  0  0  0  0  0  0  0  0  0  0  0
    3.5567   -1.6541   -3.3052 H   0  0  0  0  0  0  0  0  0  0  0  0
    4.8236   -2.7717   -2.7811 H   0  0  0  0  0  0  0  0  0  0  0  0
   -3.2111   -3.3496   -3.2071 H   0  0  0  0  0  0  0  0  0  0  0  0
   -5.1753    1.4860    1.3443 H   0  0  0  0  0  0  0  0  0  0  0  0
    0.2359   -1.6814    2.9603 C   0  0  0  0  0  0  0  0  0  0  0  0
   -1.0152   -2.0961    3.3555 N   0  0  0  0  0  0  0  0  0  0  0  0
    1.0284   -1.5767    4.0742 C   0  0  0  0  0  0  0  0  0  0  0  0
   -1.0605   -2.2071    4.7155 C   0  0  0  0  0  0  0  0  0  0  0  0
   -1.7858   -2.2775    2.7364 H   0  0  0  0  0  0  0  0  0  0  0  0
    0.2300   -1.8804    5.2096 C   0  0  0  0  0  0  0  0  0  0  0  0
    2.0671   -1.3138    4.0733 H   0  0  0  0  0  0  0  0  0  0  0  0
   -2.0994   -2.5636    5.5631 C   0  0  0  0  0  0  0  0  0  0  0  0
    0.4620   -1.9237    6.5852 C   0  0  0  0  0  0  0  0  0  0  0  0
   -1.8391   -2.5960    6.9188 C   0  0  0  0  0  0  0  0  0  0  0  0
   -3.0787   -2.8092    5.1763 H   0  0  0  0  0  0  0  0  0  0  0  0
   -0.5737   -2.2807    7.4209 C   0  0  0  0  0  0  0  0  0  0  0  0
    1.4373   -1.6812    6.9825 H   0  0  0  0  0  0  0  0  0  0  0  0
   -2.6255   -2.8716    7.6070 H   0  0  0  0  0  0  0  0  0  0  0  0
   -0.4114   -2.3199    8.4892 H   0  0  0  0  0  0  0  0  0  0  0  0
  1  2  4  0  0  0  0
  2  3  4  0  0  0  0
  3  4  4  0  0  0  0
  4  5  4  0  0  0  0
  1  6  4  0  0  0  0
  5  6  4  0  0  0  0
  6  7  1  0  0  0  0
  5  8  1  0  0  0  0
  3  9  1  0  0  0  0
  2 10  1  0  0  0  0
 10 11  4  0  0  0  0
 11 12  4  0  0  0  0
 12 13  4  0  0  0  0
 13 14  4  0  0  0  0
 10 15  4  0  0  0  0
 14 15  4  0  0  0  0
 15 16  1  0  0  0  0
 13 17  1  0  0  0  0
 12 18  1  0  0  0  0
  1 19  1  0  0  0  0
 11 19  1  0  0  0  0
 19 20  1  0  0  0  0
 19 21  1  0  0  0  0
 21 22  1  0  0  0  0
 22 23  1  0  0  0  0
 23 24  1  0  0  0  0
 24 25  1  0  0  0  0
 24 26  1  0  0  0  0
 24 27  1  0  0  0  0
 23 28  1  0  0  0  0
 28 29  1  0  0  0  0
 28 30  1  0  0  0  0
 28 31  1  0  0  0  0
 23 32  1  0  0  0  0
 21 33  1  0  0  0  0
 32 33  1  0  0  0  0
 32 34  1  0  0  0  0
 34 35  1  0  0  0  0
 34 36  1  0  0  0  0
 34 37  1  0  0  0  0
 32 38  1  0  0  0  0
 38 39  1  0  0  0  0
 38 40  1  0  0  0  0
 38 41  1  0  0  0  0
 19 42  1  0  0  0  0
 42 43  1  0  0  0  0
 43 44  1  0  0  0  0
 44 45  1  0  0  0  0
 45 46  1  0  0  0  0
 45 47  1  0  0  0  0
 45 48  1  0  0  0  0
 44 49  1  0  0  0  0
 49 50  1  0  0  0  0
 49 51  1  0  0  0  0
 49 52  1  0  0  0  0
 44 53  1  0  0  0  0
 42 54  1  0  0  0  0
 53 54  1  0  0  0  0
 53 55  1  0  0  0  0
 55 56  1  0  0  0  0
 55 57  1  0  0  0  0
 55 58  1  0  0  0  0
 53 59  1  0  0  0  0
 59 60  1  0  0  0  0
 59 61  1  0  0  0  0
 59 62  1  0  0  0  0
 19 63  1  0  0  0  0
 63 64  1  0  0  0  0
 64 65  1  0  0  0  0
 65 66  1  0  0  0  0
 66 67  1  0  0  0  0
 66 68  1  0  0  0  0
 66 69  1  0  0  0  0
 65 70  1  0  0  0  0
 70 71  1  0  0  0  0
 70 72  1  0  0  0  0
 70 73  1  0  0  0  0
 65 74  1  0  0  0  0
 63 75  1  0  0  0  0
 74 75  1  0  0  0  0
 74 76  1  0  0  0  0
 76 77  1  0  0  0  0
 76 78  1  0  0  0  0
 76 79  1  0  0  0  0
 74 80  1  0  0  0  0
 80 81  1  0  0  0  0
 80 82  1  0  0  0  0
 80 83  1  0  0  0  0
  4 84  1  0  0  0  0
 14 85  1  0  0  0  0
 19 86  1  0  0  0  0
 20 86  1  0  0  0  0
 86 87  1  0  0  0  0
 86 88  2  0  0  0  0
 87 89  1  0  0  0  0
 87 90  1  0  0  0  0
 88 91  4  0  0  0  0
 89 91  4  0  0  0  0
 88 92  1  0  0  0  0
 89 93  4  0  0  0  0
 91 94  4  0  0  0  0
 93 95  4  0  0  0  0
 93 96  1  0  0  0  0
 94 97  4  0  0  0  0
 95 97  4  0  0  0  0
 94 98  1  0  0  0  0
 95 99  1  0  0  0  0
 97100  1  0  0  0  0
M  END
