   11

C          1.52534       -1.21777        0.01355
C          2.92126       -1.19612       -0.00407
C          3.60135        0.02172       -0.01514
C          2.88797        1.22042       -0.00507
C          1.49221        1.20342        0.01256
C          0.81574       -0.01641        0.01879
I         -1.26300       -0.04480        0.02984
H          1.00849       -2.17353        0.02098
H          3.47834       -2.12954       -0.01022
H          4.68832        0.03668       -0.03233
H          3.41941        2.16905       -0.01263
