    8
Created with kallisto
C     -0.3197    1.1189    0.0042
C     -1.1693   -0.0319    0.0059
C      1.0060    0.7542    0.0040
C     -0.4330   -1.1907    0.0068
H     -2.2516   -0.0023    0.0064
I      2.5612    2.0955    0.0035
S      1.2406   -0.9276    0.0052
Cl    -1.0445   -2.7948    0.0098
