
  xtb     01142215013D
 xtb: 6.4.1 (1a32961)
 95102  0     0  0            999 V2000
   -0.9388   -2.0434   -0.3506 N   0  0  0  0  0  0  0  0  0  0  0  0
   -2.1878   -1.5706   -0.5126 C   0  0  0  0  0  0  0  0  0  0  0  0
   -3.0691   -2.1663   -1.4235 C   0  0  0  0  0  0  0  0  0  0  0  0
   -2.6547   -3.2465   -2.1725 C   0  0  0  0  0  0  0  0  0  0  0  0
   -1.3576   -3.7205   -1.9977 C   0  0  0  0  0  0  0  0  0  0  0  0
   -0.5481   -3.0853   -1.0784 C   0  0  0  0  0  0  0  0  0  0  0  0
    0.4639   -3.4215   -0.9028 H   0  0  0  0  0  0  0  0  0  0  0  0
   -0.9911   -4.5635   -2.5604 H   0  0  0  0  0  0  0  0  0  0  0  0
   -4.0709   -1.7897   -1.5469 H   0  0  0  0  0  0  0  0  0  0  0  0
   -2.5547   -0.4182    0.3051 C   0  0  0  0  0  0  0  0  0  0  0  0
   -1.6096    0.0503    1.1468 N   0  0  0  0  0  0  0  0  0  0  0  0
   -1.9020    1.0932    1.9197 C   0  0  0  0  0  0  0  0  0  0  0  0
   -3.1252    1.7334    1.9048 C   0  0  0  0  0  0  0  0  0  0  0  0
   -4.1053    1.2722    1.0312 C   0  0  0  0  0  0  0  0  0  0  0  0
   -3.8128    0.1908    0.2274 C   0  0  0  0  0  0  0  0  0  0  0  0
   -4.5590   -0.1765   -0.4570 H   0  0  0  0  0  0  0  0  0  0  0  0
   -3.3093    2.5698    2.5592 H   0  0  0  0  0  0  0  0  0  0  0  0
   -1.1046    1.4247    2.5668 H   0  0  0  0  0  0  0  0  0  0  0  0
    0.4215   -0.8165    0.9133 Ir  0  0  0  0  0  0  0  0  0  0  0  0
    0.8726   -2.2303    1.5405 H   0  0  0  0  0  0  0  0  0  0  0  0
    0.4106    0.5825   -0.6288 B   0  0  0  0  0  0  0  0  0  0  0  0
   -0.2052    0.2686   -1.8263 O   0  0  0  0  0  0  0  0  0  0  0  0
   -0.2893    1.4351   -2.6530 C   0  0  0  0  0  0  0  0  0  0  0  0
   -0.0038    1.0581   -4.1043 C   0  0  0  0  0  0  0  0  0  0  0  0
    0.9227    0.4987   -4.1787 H   0  0  0  0  0  0  0  0  0  0  0  0
    0.0579    1.9528   -4.7183 H   0  0  0  0  0  0  0  0  0  0  0  0
   -0.8108    0.4316   -4.4765 H   0  0  0  0  0  0  0  0  0  0  0  0
   -1.7272    1.9608   -2.5380 C   0  0  0  0  0  0  0  0  0  0  0  0
   -1.8834    2.8213   -3.1815 H   0  0  0  0  0  0  0  0  0  0  0  0
   -2.4111    1.1672   -2.8328 H   0  0  0  0  0  0  0  0  0  0  0  0
   -1.9460    2.2284   -1.5061 H   0  0  0  0  0  0  0  0  0  0  0  0
    0.7603    2.3919   -1.9982 C   0  0  0  0  0  0  0  0  0  0  0  0
    0.8482    1.8852   -0.6584 O   0  0  0  0  0  0  0  0  0  0  0  0
    2.1558    2.2413   -2.6157 C   0  0  0  0  0  0  0  0  0  0  0  0
    2.4604    1.1995   -2.5526 H   0  0  0  0  0  0  0  0  0  0  0  0
    2.1751    2.5865   -3.6453 H   0  0  0  0  0  0  0  0  0  0  0  0
    2.8599    2.8284   -2.0310 H   0  0  0  0  0  0  0  0  0  0  0  0
    0.3651    3.8669   -1.9769 C   0  0  0  0  0  0  0  0  0  0  0  0
   -0.5288    4.0280   -1.3825 H   0  0  0  0  0  0  0  0  0  0  0  0
    1.1733    4.4458   -1.5366 H   0  0  0  0  0  0  0  0  0  0  0  0
    0.1943    4.2197   -2.9908 H   0  0  0  0  0  0  0  0  0  0  0  0
    1.5740    0.6395    1.8640 B   0  0  0  0  0  0  0  0  0  0  0  0
    2.9404    0.7629    1.8886 O   0  0  0  0  0  0  0  0  0  0  0  0
    3.3090    2.0364    2.4398 C   0  0  0  0  0  0  0  0  0  0  0  0
    4.5457    1.8809    3.3227 C   0  0  0  0  0  0  0  0  0  0  0  0
    4.3984    1.1084    4.0701 H   0  0  0  0  0  0  0  0  0  0  0  0
    5.3925    1.5965    2.7033 H   0  0  0  0  0  0  0  0  0  0  0  0
    4.7732    2.8230    3.8139 H   0  0  0  0  0  0  0  0  0  0  0  0
    3.6361    2.9438    1.2478 C   0  0  0  0  0  0  0  0  0  0  0  0
    3.9105    3.9437    1.5699 H   0  0  0  0  0  0  0  0  0  0  0  0
    4.4673    2.5079    0.6983 H   0  0  0  0  0  0  0  0  0  0  0  0
    2.7765    2.9761    0.5832 H   0  0  0  0  0  0  0  0  0  0  0  0
    2.0086    2.4741    3.1971 C   0  0  0  0  0  0  0  0  0  0  0  0
    0.9979    1.6591    2.5858 O   0  0  0  0  0  0  0  0  0  0  0  0
    1.6339    3.9458    3.0298 C   0  0  0  0  0  0  0  0  0  0  0  0
    1.4208    4.1697    1.9899 H   0  0  0  0  0  0  0  0  0  0  0  0
    0.7409    4.1541    3.6140 H   0  0  0  0  0  0  0  0  0  0  0  0
    2.4402    4.5809    3.3859 H   0  0  0  0  0  0  0  0  0  0  0  0
    2.0313    2.1256    4.6907 C   0  0  0  0  0  0  0  0  0  0  0  0
    2.2403    1.0684    4.8301 H   0  0  0  0  0  0  0  0  0  0  0  0
    2.7687    2.7218    5.2193 H   0  0  0  0  0  0  0  0  0  0  0  0
    1.0491    2.3275    5.1121 H   0  0  0  0  0  0  0  0  0  0  0  0
    2.2782   -1.3309    0.1741 B   0  0  0  0  0  0  0  0  0  0  0  0
    3.0786   -2.3200    0.7047 O   0  0  0  0  0  0  0  0  0  0  0  0
    4.3785   -2.2862    0.0999 C   0  0  0  0  0  0  0  0  0  0  0  0
    5.3050   -1.5897    1.1022 C   0  0  0  0  0  0  0  0  0  0  0  0
    4.8880   -0.6178    1.3500 H   0  0  0  0  0  0  0  0  0  0  0  0
    5.3345   -2.1832    2.0126 H   0  0  0  0  0  0  0  0  0  0  0  0
    6.3129   -1.4892    0.7121 H   0  0  0  0  0  0  0  0  0  0  0  0
    4.8679   -3.7149   -0.1356 C   0  0  0  0  0  0  0  0  0  0  0  0
    4.9794   -4.2087    0.8262 H   0  0  0  0  0  0  0  0  0  0  0  0
    5.8306   -3.7017   -0.6386 H   0  0  0  0  0  0  0  0  0  0  0  0
    4.1583   -4.2850   -0.7257 H   0  0  0  0  0  0  0  0  0  0  0  0
    4.1336   -1.4431   -1.2014 C   0  0  0  0  0  0  0  0  0  0  0  0
    2.8883   -0.7813   -0.9264 O   0  0  0  0  0  0  0  0  0  0  0  0
    5.2029   -0.3922   -1.4935 C   0  0  0  0  0  0  0  0  0  0  0  0
    6.1755   -0.8633   -1.6041 H   0  0  0  0  0  0  0  0  0  0  0  0
    4.9537    0.1222   -2.4181 H   0  0  0  0  0  0  0  0  0  0  0  0
    5.2369    0.3420   -0.6963 H   0  0  0  0  0  0  0  0  0  0  0  0
    3.9202   -2.3051   -2.4528 C   0  0  0  0  0  0  0  0  0  0  0  0
    3.1295   -3.0297   -2.2797 H   0  0  0  0  0  0  0  0  0  0  0  0
    3.6090   -1.6592   -3.2703 H   0  0  0  0  0  0  0  0  0  0  0  0
    4.8351   -2.8167   -2.7353 H   0  0  0  0  0  0  0  0  0  0  0  0
   -3.3237   -3.7131   -2.8793 H   0  0  0  0  0  0  0  0  0  0  0  0
   -5.0729    1.7481    0.9818 H   0  0  0  0  0  0  0  0  0  0  0  0
    0.2359   -1.6814    2.9603 C   0  0  0  0  0  0  0  0  0  0  0  0
   -1.0430   -2.0606    3.3751 C   0  0  0  0  0  0  0  0  0  0  0  0
    1.1895   -1.5161    3.9657 C   0  0  0  0  0  0  0  0  0  0  0  0
   -1.3413   -2.1548    4.7264 C   0  0  0  0  0  0  0  0  0  0  0  0
   -1.8164   -2.2861    2.6549 H   0  0  0  0  0  0  0  0  0  0  0  0
    0.9255   -1.6054    5.2620 N   0  0  0  0  0  0  0  0  0  0  0  0
    2.2197   -1.3050    3.7168 H   0  0  0  0  0  0  0  0  0  0  0  0
   -0.3078   -1.8945    5.6066 C   0  0  0  0  0  0  0  0  0  0  0  0
   -2.3203   -2.4245    5.0893 H   0  0  0  0  0  0  0  0  0  0  0  0
   -0.5442   -1.9565    6.9437 F   0  0  0  0  0  0  0  0  0  0  0  0
  1  2  4  0  0  0  0
  2  3  4  0  0  0  0
  3  4  4  0  0  0  0
  4  5  4  0  0  0  0
  1  6  4  0  0  0  0
  5  6  4  0  0  0  0
  6  7  1  0  0  0  0
  5  8  1  0  0  0  0
  3  9  1  0  0  0  0
  2 10  1  0  0  0  0
 10 11  4  0  0  0  0
 11 12  4  0  0  0  0
 12 13  4  0  0  0  0
 13 14  4  0  0  0  0
 10 15  4  0  0  0  0
 14 15  4  0  0  0  0
 15 16  1  0  0  0  0
 13 17  1  0  0  0  0
 12 18  1  0  0  0  0
  1 19  1  0  0  0  0
 11 19  1  0  0  0  0
 19 20  1  0  0  0  0
 19 21  1  0  0  0  0
 21 22  1  0  0  0  0
 22 23  1  0  0  0  0
 23 24  1  0  0  0  0
 24 25  1  0  0  0  0
 24 26  1  0  0  0  0
 24 27  1  0  0  0  0
 23 28  1  0  0  0  0
 28 29  1  0  0  0  0
 28 30  1  0  0  0  0
 28 31  1  0  0  0  0
 23 32  1  0  0  0  0
 21 33  1  0  0  0  0
 32 33  1  0  0  0  0
 32 34  1  0  0  0  0
 34 35  1  0  0  0  0
 34 36  1  0  0  0  0
 34 37  1  0  0  0  0
 32 38  1  0  0  0  0
 38 39  1  0  0  0  0
 38 40  1  0  0  0  0
 38 41  1  0  0  0  0
 19 42  1  0  0  0  0
 42 43  1  0  0  0  0
 43 44  1  0  0  0  0
 44 45  1  0  0  0  0
 45 46  1  0  0  0  0
 45 47  1  0  0  0  0
 45 48  1  0  0  0  0
 44 49  1  0  0  0  0
 49 50  1  0  0  0  0
 49 51  1  0  0  0  0
 49 52  1  0  0  0  0
 44 53  1  0  0  0  0
 42 54  1  0  0  0  0
 53 54  1  0  0  0  0
 53 55  1  0  0  0  0
 55 56  1  0  0  0  0
 55 57  1  0  0  0  0
 55 58  1  0  0  0  0
 53 59  1  0  0  0  0
 59 60  1  0  0  0  0
 59 61  1  0  0  0  0
 59 62  1  0  0  0  0
 19 63  1  0  0  0  0
 63 64  1  0  0  0  0
 64 65  1  0  0  0  0
 65 66  1  0  0  0  0
 66 67  1  0  0  0  0
 66 68  1  0  0  0  0
 66 69  1  0  0  0  0
 65 70  1  0  0  0  0
 70 71  1  0  0  0  0
 70 72  1  0  0  0  0
 70 73  1  0  0  0  0
 65 74  1  0  0  0  0
 63 75  1  0  0  0  0
 74 75  1  0  0  0  0
 74 76  1  0  0  0  0
 76 77  1  0  0  0  0
 76 78  1  0  0  0  0
 76 79  1  0  0  0  0
 74 80  1  0  0  0  0
 80 81  1  0  0  0  0
 80 82  1  0  0  0  0
 80 83  1  0  0  0  0
  4 84  1  0  0  0  0
 14 85  1  0  0  0  0
 19 86  1  0  0  0  0
 20 86  1  0  0  0  0
 86 87  4  0  0  0  0
 86 88  4  0  0  0  0
 87 89  4  0  0  0  0
 87 90  1  0  0  0  0
 88 91  4  0  0  0  0
 88 92  1  0  0  0  0
 89 93  4  0  0  0  0
 91 93  4  0  0  0  0
 89 94  1  0  0  0  0
 93 95  1  0  0  0  0
M  END
