
  xtb     01142214283D
 xtb: 6.4.1 (1a32961)
129137  0     0  0            999 V2000
   -0.9604   -2.0765   -0.3573 N   0  0  0  0  0  0  0  0  0  0  0  0
   -2.2200   -1.6172   -0.4637 C   0  0  0  0  0  0  0  0  0  0  0  0
   -3.0797   -2.0887   -1.4617 C   0  0  0  0  0  0  0  0  0  0  0  0
   -2.6354   -3.0483   -2.3465 C   0  0  0  0  0  0  0  0  0  0  0  0
   -1.3338   -3.5216   -2.2174 C   0  0  0  0  0  0  0  0  0  0  0  0
   -0.5410   -3.0003   -1.2137 C   0  0  0  0  0  0  0  0  0  0  0  0
    0.4806   -3.3246   -1.0839 H   0  0  0  0  0  0  0  0  0  0  0  0
   -0.9464   -4.2732   -2.8857 H   0  0  0  0  0  0  0  0  0  0  0  0
   -4.0791   -1.6966   -1.5579 H   0  0  0  0  0  0  0  0  0  0  0  0
   -2.6198   -0.5938    0.4987 C   0  0  0  0  0  0  0  0  0  0  0  0
   -1.6393   -0.0676    1.2606 N   0  0  0  0  0  0  0  0  0  0  0  0
   -1.9503    0.8767    2.1459 C   0  0  0  0  0  0  0  0  0  0  0  0
   -3.2347    1.3476    2.3326 C   0  0  0  0  0  0  0  0  0  0  0  0
   -4.2610    0.8051    1.5640 C   0  0  0  0  0  0  0  0  0  0  0  0
   -3.9469   -0.1715    0.6424 C   0  0  0  0  0  0  0  0  0  0  0  0
   -4.7287   -0.6146    0.0481 H   0  0  0  0  0  0  0  0  0  0  0  0
   -3.4328    2.1103    3.0679 H   0  0  0  0  0  0  0  0  0  0  0  0
   -1.1202    1.2566    2.7227 H   0  0  0  0  0  0  0  0  0  0  0  0
    0.4215   -0.8165    0.9133 Ir  0  0  0  0  0  0  0  0  0  0  0  0
    0.8726   -2.2303    1.5405 H   0  0  0  0  0  0  0  0  0  0  0  0
    0.2338    0.6088   -0.6085 B   0  0  0  0  0  0  0  0  0  0  0  0
   -0.5424    0.3349   -1.7254 O   0  0  0  0  0  0  0  0  0  0  0  0
   -0.8632    1.5483   -2.4124 C   0  0  0  0  0  0  0  0  0  0  0  0
   -0.8275    1.3180   -3.9210 C   0  0  0  0  0  0  0  0  0  0  0  0
    0.1069    0.8564   -4.2221 H   0  0  0  0  0  0  0  0  0  0  0  0
   -0.9545    2.2618   -4.4454 H   0  0  0  0  0  0  0  0  0  0  0  0
   -1.6397    0.6498   -4.1976 H   0  0  0  0  0  0  0  0  0  0  0  0
   -2.2907    1.9362   -1.9982 C   0  0  0  0  0  0  0  0  0  0  0  0
   -2.6232    2.8274   -2.5221 H   0  0  0  0  0  0  0  0  0  0  0  0
   -2.9588    1.1120   -2.2407 H   0  0  0  0  0  0  0  0  0  0  0  0
   -2.3369    2.1038   -0.9240 H   0  0  0  0  0  0  0  0  0  0  0  0
    0.2112    2.5425   -1.8641 C   0  0  0  0  0  0  0  0  0  0  0  0
    0.5745    1.9441   -0.6141 O   0  0  0  0  0  0  0  0  0  0  0  0
    1.4768    2.5753   -2.7301 C   0  0  0  0  0  0  0  0  0  0  0  0
    1.8401    1.5615   -2.8817 H   0  0  0  0  0  0  0  0  0  0  0  0
    1.2875    3.0528   -3.6873 H   0  0  0  0  0  0  0  0  0  0  0  0
    2.2464    3.1310   -2.1995 H   0  0  0  0  0  0  0  0  0  0  0  0
   -0.2830    3.9699   -1.6349 C   0  0  0  0  0  0  0  0  0  0  0  0
   -1.0551    4.0016   -0.8721 H   0  0  0  0  0  0  0  0  0  0  0  0
    0.5487    4.5859   -1.3011 H   0  0  0  0  0  0  0  0  0  0  0  0
   -0.6727    4.3828   -2.5618 H   0  0  0  0  0  0  0  0  0  0  0  0
    1.5090    0.7566    1.7651 B   0  0  0  0  0  0  0  0  0  0  0  0
    2.7065    1.2725    1.3717 O   0  0  0  0  0  0  0  0  0  0  0  0
    3.0360    2.4587    2.1019 C   0  0  0  0  0  0  0  0  0  0  0  0
    4.3984    2.2492    2.7715 C   0  0  0  0  0  0  0  0  0  0  0  0
    4.4230    1.3178    3.3296 H   0  0  0  0  0  0  0  0  0  0  0  0
    5.1583    2.1847    1.9971 H   0  0  0  0  0  0  0  0  0  0  0  0
    4.6392    3.0799    3.4278 H   0  0  0  0  0  0  0  0  0  0  0  0
    3.1571    3.5975    1.0832 C   0  0  0  0  0  0  0  0  0  0  0  0
    3.3491    4.5468    1.5742 H   0  0  0  0  0  0  0  0  0  0  0  0
    3.9835    3.3732    0.4133 H   0  0  0  0  0  0  0  0  0  0  0  0
    2.2507    3.6547    0.4894 H   0  0  0  0  0  0  0  0  0  0  0  0
    1.8294    2.6204    3.1055 C   0  0  0  0  0  0  0  0  0  0  0  0
    0.9851    1.5040    2.7958 O   0  0  0  0  0  0  0  0  0  0  0  0
    0.9966    3.8903    2.8958 C   0  0  0  0  0  0  0  0  0  0  0  0
    0.5834    3.9066    1.8920 H   0  0  0  0  0  0  0  0  0  0  0  0
    0.1719    3.8855    3.6047 H   0  0  0  0  0  0  0  0  0  0  0  0
    1.5948    4.7806    3.0629 H   0  0  0  0  0  0  0  0  0  0  0  0
    2.2162    2.5319    4.5851 C   0  0  0  0  0  0  0  0  0  0  0  0
    2.7860    1.6321    4.7883 H   0  0  0  0  0  0  0  0  0  0  0  0
    2.7949    3.4027    4.8788 H   0  0  0  0  0  0  0  0  0  0  0  0
    1.3065    2.4959    5.1794 H   0  0  0  0  0  0  0  0  0  0  0  0
    2.2782   -1.3309    0.1741 B   0  0  0  0  0  0  0  0  0  0  0  0
    3.4930   -1.4186    0.8029 O   0  0  0  0  0  0  0  0  0  0  0  0
    4.5322   -1.6532   -0.1545 C   0  0  0  0  0  0  0  0  0  0  0  0
    5.2072   -0.3020   -0.4109 C   0  0  0  0  0  0  0  0  0  0  0  0
    4.4633    0.4128   -0.7523 H   0  0  0  0  0  0  0  0  0  0  0  0
    5.6040    0.0609    0.5336 H   0  0  0  0  0  0  0  0  0  0  0  0
    6.0144   -0.3911   -1.1319 H   0  0  0  0  0  0  0  0  0  0  0  0
    5.5478   -2.6312    0.4321 C   0  0  0  0  0  0  0  0  0  0  0  0
    6.0627   -2.1436    1.2562 H   0  0  0  0  0  0  0  0  0  0  0  0
    6.2773   -2.9158   -0.3211 H   0  0  0  0  0  0  0  0  0  0  0  0
    5.0506   -3.5160    0.8175 H   0  0  0  0  0  0  0  0  0  0  0  0
    3.7393   -2.1878   -1.3944 C   0  0  0  0  0  0  0  0  0  0  0  0
    2.4126   -1.6978   -1.1519 O   0  0  0  0  0  0  0  0  0  0  0  0
    4.2280   -1.6751   -2.7477 C   0  0  0  0  0  0  0  0  0  0  0  0
    5.2649   -1.9592   -2.9045 H   0  0  0  0  0  0  0  0  0  0  0  0
    3.6186   -2.1154   -3.5330 H   0  0  0  0  0  0  0  0  0  0  0  0
    4.1334   -0.5959   -2.8083 H   0  0  0  0  0  0  0  0  0  0  0  0
    3.6575   -3.7195   -1.4288 C   0  0  0  0  0  0  0  0  0  0  0  0
    3.3153   -4.0955   -0.4678 H   0  0  0  0  0  0  0  0  0  0  0  0
    2.9392   -4.0123   -2.1914 H   0  0  0  0  0  0  0  0  0  0  0  0
    4.6224   -4.1553   -1.6692 H   0  0  0  0  0  0  0  0  0  0  0  0
   -3.2846   -3.4178   -3.1260 H   0  0  0  0  0  0  0  0  0  0  0  0
   -5.2808    1.1364    1.6874 H   0  0  0  0  0  0  0  0  0  0  0  0
    0.2359   -1.6814    2.9603 C   0  0  0  0  0  0  0  0  0  0  0  0
   -1.0221   -2.1434    3.2847 N   0  0  0  0  0  0  0  0  0  0  0  0
    1.0084   -1.7019    4.1011 C   0  0  0  0  0  0  0  0  0  0  0  0
   -1.1033   -2.4013    4.6205 C   0  0  0  0  0  0  0  0  0  0  0  0
   -1.7750   -2.2592    2.6290 H   0  0  0  0  0  0  0  0  0  0  0  0
    2.4560   -1.3674    4.2350 C   0  0  0  0  0  0  0  0  0  0  0  0
    0.1736   -2.1303    5.1760 C   0  0  0  0  0  0  0  0  0  0  0  0
   -2.1618   -2.8499    5.3980 C   0  0  0  0  0  0  0  0  0  0  0  0
    3.3646   -2.4582    3.6417 C   0  0  0  0  0  0  0  0  0  0  0  0
    2.7007   -1.2224    5.2888 H   0  0  0  0  0  0  0  0  0  0  0  0
    2.6753   -0.4530    3.6869 H   0  0  0  0  0  0  0  0  0  0  0  0
    0.3703   -2.3266    6.5443 C   0  0  0  0  0  0  0  0  0  0  0  0
   -1.9343   -3.0363    6.7468 C   0  0  0  0  0  0  0  0  0  0  0  0
   -3.1303   -3.0512    4.9622 H   0  0  0  0  0  0  0  0  0  0  0  0
    2.9749   -3.7912    4.0263 N   0  0  0  0  0  0  0  0  0  0  0  0
    4.8215   -2.1749    3.9677 C   0  0  0  0  0  0  0  0  0  0  0  0
    3.2875   -2.3984    2.5465 H   0  0  0  0  0  0  0  0  0  0  0  0
   -0.6820   -2.7773    7.3103 C   0  0  0  0  0  0  0  0  0  0  0  0
    1.3306   -2.1269    6.9979 H   0  0  0  0  0  0  0  0  0  0  0  0
   -2.7351   -3.3896    7.3807 H   0  0  0  0  0  0  0  0  0  0  0  0
    2.8826   -4.8082    3.1493 C   0  0  0  0  0  0  0  0  0  0  0  0
    2.8450   -3.9992    5.0041 H   0  0  0  0  0  0  0  0  0  0  0  0
    5.2875   -1.0687    4.1019 O   0  0  0  0  0  0  0  0  0  0  0  0
    5.5268   -3.2983    4.0793 O   0  0  0  0  0  0  0  0  0  0  0  0
   -0.5430   -2.9356    8.3708 H   0  0  0  0  0  0  0  0  0  0  0  0
    3.0273   -4.6972    1.9483 O   0  0  0  0  0  0  0  0  0  0  0  0
    2.6007   -5.9478    3.8039 O   0  0  0  0  0  0  0  0  0  0  0  0
    6.9318   -3.2021    4.3230 C   0  0  0  0  0  0  0  0  0  0  0  0
    2.4704   -7.2146    3.1016 C   0  0  0  0  0  0  0  0  0  0  0  0
    7.4593   -3.5145    3.4216 H   0  0  0  0  0  0  0  0  0  0  0  0
    7.1653   -3.8741    5.1469 H   0  0  0  0  0  0  0  0  0  0  0  0
    7.1959   -2.1741    4.5755 H   0  0  0  0  0  0  0  0  0  0  0  0
    3.7743   -7.5638    2.3833 C   0  0  0  0  0  0  0  0  0  0  0  0
    2.1897   -8.2227    4.2177 C   0  0  0  0  0  0  0  0  0  0  0  0
    1.2998   -7.1615    2.1199 C   0  0  0  0  0  0  0  0  0  0  0  0
    4.6024   -7.5575    3.0884 H   0  0  0  0  0  0  0  0  0  0  0  0
    3.9768   -6.8397    1.5991 H   0  0  0  0  0  0  0  0  0  0  0  0
    3.6922   -8.5519    1.9402 H   0  0  0  0  0  0  0  0  0  0  0  0
    3.0153   -8.2339    4.9238 H   0  0  0  0  0  0  0  0  0  0  0  0
    2.0668   -9.2152    3.7959 H   0  0  0  0  0  0  0  0  0  0  0  0
    1.2842   -7.9438    4.7493 H   0  0  0  0  0  0  0  0  0  0  0  0
    1.4951   -6.4247    1.3458 H   0  0  0  0  0  0  0  0  0  0  0  0
    0.3864   -6.8879    2.6432 H   0  0  0  0  0  0  0  0  0  0  0  0
    1.1675   -8.1353    1.6575 H   0  0  0  0  0  0  0  0  0  0  0  0
  1  2  4  0  0  0  0
  2  3  4  0  0  0  0
  3  4  4  0  0  0  0
  4  5  4  0  0  0  0
  1  6  4  0  0  0  0
  5  6  4  0  0  0  0
  6  7  1  0  0  0  0
  5  8  1  0  0  0  0
  3  9  1  0  0  0  0
  2 10  1  0  0  0  0
 10 11  4  0  0  0  0
 11 12  4  0  0  0  0
 12 13  4  0  0  0  0
 13 14  4  0  0  0  0
 10 15  4  0  0  0  0
 14 15  4  0  0  0  0
 15 16  1  0  0  0  0
 13 17  1  0  0  0  0
 12 18  1  0  0  0  0
  1 19  1  0  0  0  0
 11 19  1  0  0  0  0
 19 20  1  0  0  0  0
 19 21  1  0  0  0  0
 21 22  1  0  0  0  0
 22 23  1  0  0  0  0
 23 24  1  0  0  0  0
 24 25  1  0  0  0  0
 24 26  1  0  0  0  0
 24 27  1  0  0  0  0
 23 28  1  0  0  0  0
 28 29  1  0  0  0  0
 28 30  1  0  0  0  0
 28 31  1  0  0  0  0
 23 32  1  0  0  0  0
 21 33  1  0  0  0  0
 32 33  1  0  0  0  0
 32 34  1  0  0  0  0
 34 35  1  0  0  0  0
 34 36  1  0  0  0  0
 34 37  1  0  0  0  0
 32 38  1  0  0  0  0
 38 39  1  0  0  0  0
 38 40  1  0  0  0  0
 38 41  1  0  0  0  0
 19 42  1  0  0  0  0
 42 43  1  0  0  0  0
 43 44  1  0  0  0  0
 44 45  1  0  0  0  0
 45 46  1  0  0  0  0
 45 47  1  0  0  0  0
 45 48  1  0  0  0  0
 44 49  1  0  0  0  0
 49 50  1  0  0  0  0
 49 51  1  0  0  0  0
 49 52  1  0  0  0  0
 44 53  1  0  0  0  0
 42 54  1  0  0  0  0
 53 54  1  0  0  0  0
 53 55  1  0  0  0  0
 55 56  1  0  0  0  0
 55 57  1  0  0  0  0
 55 58  1  0  0  0  0
 53 59  1  0  0  0  0
 59 60  1  0  0  0  0
 59 61  1  0  0  0  0
 59 62  1  0  0  0  0
 19 63  1  0  0  0  0
 63 64  1  0  0  0  0
 64 65  1  0  0  0  0
 65 66  1  0  0  0  0
 66 67  1  0  0  0  0
 66 68  1  0  0  0  0
 66 69  1  0  0  0  0
 65 70  1  0  0  0  0
 70 71  1  0  0  0  0
 70 72  1  0  0  0  0
 70 73  1  0  0  0  0
 65 74  1  0  0  0  0
 63 75  1  0  0  0  0
 74 75  1  0  0  0  0
 74 76  1  0  0  0  0
 76 77  1  0  0  0  0
 76 78  1  0  0  0  0
 76 79  1  0  0  0  0
 74 80  1  0  0  0  0
 80 81  1  0  0  0  0
 80 82  1  0  0  0  0
 80 83  1  0  0  0  0
  4 84  1  0  0  0  0
 14 85  1  0  0  0  0
 19 86  1  0  0  0  0
 20 86  1  0  0  0  0
 86 87  1  0  0  0  0
 86 88  2  0  0  0  0
 87 89  1  0  0  0  0
 87 90  1  0  0  0  0
 88 91  1  0  0  0  0
 88 92  4  0  0  0  0
 89 92  4  0  0  0  0
 89 93  4  0  0  0  0
 91 94  1  0  0  0  0
 91 95  1  0  0  0  0
 91 96  1  0  0  0  0
 92 97  4  0  0  0  0
 93 98  4  0  0  0  0
 93 99  1  0  0  0  0
 94100  1  0  0  0  0
 94101  1  0  0  0  0
 94102  1  0  0  0  0
 97103  4  0  0  0  0
 98103  4  0  0  0  0
 97104  1  0  0  0  0
 98105  1  0  0  0  0
100106  4  0  0  0  0
100107  1  0  0  0  0
101108  2  0  0  0  0
101109  1  0  0  0  0
103110  1  0  0  0  0
106111  2  0  0  0  0
106112  1  0  0  0  0
109113  1  0  0  0  0
112114  1  0  0  0  0
113115  1  0  0  0  0
113116  1  0  0  0  0
113117  1  0  0  0  0
114118  1  0  0  0  0
114119  1  0  0  0  0
114120  1  0  0  0  0
118121  1  0  0  0  0
118122  1  0  0  0  0
118123  1  0  0  0  0
119124  1  0  0  0  0
119125  1  0  0  0  0
119126  1  0  0  0  0
120127  1  0  0  0  0
120128  1  0  0  0  0
120129  1  0  0  0  0
M  END
