
  xtb     01142214213D
 xtb: 6.4.1 (1a32961)
110119  0     0  0            999 V2000
   -0.8780   -1.9373   -0.4706 N   0  0  0  0  0  0  0  0  0  0  0  0
   -2.1002   -1.4083   -0.6787 C   0  0  0  0  0  0  0  0  0  0  0  0
   -2.9257   -1.8886   -1.7035 C   0  0  0  0  0  0  0  0  0  0  0  0
   -2.4940   -2.9167   -2.5105 C   0  0  0  0  0  0  0  0  0  0  0  0
   -1.2292   -3.4559   -2.2819 C   0  0  0  0  0  0  0  0  0  0  0  0
   -0.4712   -2.9298   -1.2587 C   0  0  0  0  0  0  0  0  0  0  0  0
    0.5146   -3.3187   -1.0438 H   0  0  0  0  0  0  0  0  0  0  0  0
   -0.8505   -4.2635   -2.8873 H   0  0  0  0  0  0  0  0  0  0  0  0
   -3.8995   -1.4575   -1.8686 H   0  0  0  0  0  0  0  0  0  0  0  0
   -2.4880   -0.3173    0.2014 C   0  0  0  0  0  0  0  0  0  0  0  0
   -1.5662    0.0855    1.1028 N   0  0  0  0  0  0  0  0  0  0  0  0
   -1.8758    1.0854    1.9261 C   0  0  0  0  0  0  0  0  0  0  0  0
   -3.0872    1.7432    1.9064 C   0  0  0  0  0  0  0  0  0  0  0  0
   -4.0470    1.3418    0.9804 C   0  0  0  0  0  0  0  0  0  0  0  0
   -3.7398    0.3052    0.1277 C   0  0  0  0  0  0  0  0  0  0  0  0
   -4.4723   -0.0248   -0.5899 H   0  0  0  0  0  0  0  0  0  0  0  0
   -3.2836    2.5443    2.6008 H   0  0  0  0  0  0  0  0  0  0  0  0
   -1.0992    1.3640    2.6219 H   0  0  0  0  0  0  0  0  0  0  0  0
    0.4215   -0.8165    0.9133 Ir  0  0  0  0  0  0  0  0  0  0  0  0
    0.8726   -2.2303    1.5405 H   0  0  0  0  0  0  0  0  0  0  0  0
    0.4678    0.6494   -0.5750 B   0  0  0  0  0  0  0  0  0  0  0  0
   -0.1644    0.4095   -1.7819 O   0  0  0  0  0  0  0  0  0  0  0  0
   -0.2064    1.6076   -2.5623 C   0  0  0  0  0  0  0  0  0  0  0  0
    0.0550    1.2727   -4.0287 C   0  0  0  0  0  0  0  0  0  0  0  0
    0.9605    0.6839   -4.1316 H   0  0  0  0  0  0  0  0  0  0  0  0
    0.1427    2.1854   -4.6125 H   0  0  0  0  0  0  0  0  0  0  0  0
   -0.7767    0.6870   -4.4136 H   0  0  0  0  0  0  0  0  0  0  0  0
   -1.6210    2.1884   -2.4213 C   0  0  0  0  0  0  0  0  0  0  0  0
   -1.7417    3.0803   -3.0291 H   0  0  0  0  0  0  0  0  0  0  0  0
   -2.3388    1.4375   -2.7458 H   0  0  0  0  0  0  0  0  0  0  0  0
   -1.8283    2.4225   -1.3788 H   0  0  0  0  0  0  0  0  0  0  0  0
    0.8837    2.4960   -1.8788 C   0  0  0  0  0  0  0  0  0  0  0  0
    0.9576    1.9361   -0.5605 O   0  0  0  0  0  0  0  0  0  0  0  0
    2.2678    2.3145   -2.5136 C   0  0  0  0  0  0  0  0  0  0  0  0
    2.5309    1.2598   -2.4931 H   0  0  0  0  0  0  0  0  0  0  0  0
    2.2925    2.6966   -3.5301 H   0  0  0  0  0  0  0  0  0  0  0  0
    3.0000    2.8516   -1.9150 H   0  0  0  0  0  0  0  0  0  0  0  0
    0.5491    3.9840   -1.7989 C   0  0  0  0  0  0  0  0  0  0  0  0
   -0.3376    4.1576   -1.1970 H   0  0  0  0  0  0  0  0  0  0  0  0
    1.3808    4.5114   -1.3376 H   0  0  0  0  0  0  0  0  0  0  0  0
    0.3928    4.3834   -2.7978 H   0  0  0  0  0  0  0  0  0  0  0  0
    1.5729    0.6213    1.9055 B   0  0  0  0  0  0  0  0  0  0  0  0
    2.9369    0.7755    1.8776 O   0  0  0  0  0  0  0  0  0  0  0  0
    3.3182    2.0131    2.4913 C   0  0  0  0  0  0  0  0  0  0  0  0
    4.5472    1.7892    3.3720 C   0  0  0  0  0  0  0  0  0  0  0  0
    4.3724    0.9862    4.0801 H   0  0  0  0  0  0  0  0  0  0  0  0
    5.3889    1.5097    2.7434 H   0  0  0  0  0  0  0  0  0  0  0  0
    4.7975    2.7018    3.9061 H   0  0  0  0  0  0  0  0  0  0  0  0
    3.6748    2.9732    1.3495 C   0  0  0  0  0  0  0  0  0  0  0  0
    3.9491    3.9555    1.7224 H   0  0  0  0  0  0  0  0  0  0  0  0
    4.5150    2.5577    0.7973 H   0  0  0  0  0  0  0  0  0  0  0  0
    2.8295    3.0433    0.6700 H   0  0  0  0  0  0  0  0  0  0  0  0
    2.0219    2.4340    3.2687 C   0  0  0  0  0  0  0  0  0  0  0  0
    1.0084    1.6155    2.6728 O   0  0  0  0  0  0  0  0  0  0  0  0
    1.6310    3.9039    3.1129 C   0  0  0  0  0  0  0  0  0  0  0  0
    1.4215    4.1362    2.0741 H   0  0  0  0  0  0  0  0  0  0  0  0
    0.7312    4.0949    3.6926 H   0  0  0  0  0  0  0  0  0  0  0  0
    2.4266    4.5462    3.4804 H   0  0  0  0  0  0  0  0  0  0  0  0
    2.0645    2.0821    4.7610 C   0  0  0  0  0  0  0  0  0  0  0  0
    2.2771    1.0247    4.8907 H   0  0  0  0  0  0  0  0  0  0  0  0
    2.8078    2.6767    5.2828 H   0  0  0  0  0  0  0  0  0  0  0  0
    1.0866    2.2820    5.1929 H   0  0  0  0  0  0  0  0  0  0  0  0
    2.2782   -1.3309    0.1741 B   0  0  0  0  0  0  0  0  0  0  0  0
    3.1442   -2.2528    0.7273 O   0  0  0  0  0  0  0  0  0  0  0  0
    4.4035   -2.2334    0.0454 C   0  0  0  0  0  0  0  0  0  0  0  0
    5.3670   -1.4262    0.9226 C   0  0  0  0  0  0  0  0  0  0  0  0
    4.9334   -0.4486    1.1141 H   0  0  0  0  0  0  0  0  0  0  0  0
    5.4760   -1.9375    1.8760 H   0  0  0  0  0  0  0  0  0  0  0  0
    6.3443   -1.3305    0.4598 H   0  0  0  0  0  0  0  0  0  0  0  0
    4.9271   -3.6624   -0.0990 C   0  0  0  0  0  0  0  0  0  0  0  0
    5.1229   -4.0641    0.8916 H   0  0  0  0  0  0  0  0  0  0  0  0
    5.8510   -3.6662   -0.6707 H   0  0  0  0  0  0  0  0  0  0  0  0
    4.1985   -4.3041   -0.5828 H   0  0  0  0  0  0  0  0  0  0  0  0
    4.0535   -1.5131   -1.3033 C   0  0  0  0  0  0  0  0  0  0  0  0
    2.8160   -0.8508   -1.0008 O   0  0  0  0  0  0  0  0  0  0  0  0
    5.0817   -0.4802   -1.7614 C   0  0  0  0  0  0  0  0  0  0  0  0
    6.0566   -0.9453   -1.8793 H   0  0  0  0  0  0  0  0  0  0  0  0
    4.7731   -0.0678   -2.7189 H   0  0  0  0  0  0  0  0  0  0  0  0
    5.1454    0.3329   -1.0465 H   0  0  0  0  0  0  0  0  0  0  0  0
    3.7752   -2.4890   -2.4548 C   0  0  0  0  0  0  0  0  0  0  0  0
    3.0242   -3.2159   -2.1579 H   0  0  0  0  0  0  0  0  0  0  0  0
    3.3821   -1.9276   -3.2991 H   0  0  0  0  0  0  0  0  0  0  0  0
    4.6826   -3.0007   -2.7611 H   0  0  0  0  0  0  0  0  0  0  0  0
   -3.1218   -3.2960   -3.3028 H   0  0  0  0  0  0  0  0  0  0  0  0
   -5.0098    1.8277    0.9319 H   0  0  0  0  0  0  0  0  0  0  0  0
    0.2359   -1.6814    2.9603 C   0  0  0  0  0  0  0  0  0  0  0  0
   -0.9915   -1.8194    3.5757 C   0  0  0  0  0  0  0  0  0  0  0  0
    1.2003   -1.6281    4.0170 C   0  0  0  0  0  0  0  0  0  0  0  0
   -0.8316   -1.7640    4.9511 N   0  0  0  0  0  0  0  0  0  0  0  0
   -2.3254   -2.0244    3.0281 C   0  0  0  0  0  0  0  0  0  0  0  0
    2.5952   -1.5939    4.0349 C   0  0  0  0  0  0  0  0  0  0  0  0
    0.4942   -1.6740    5.2456 C   0  0  0  0  0  0  0  0  0  0  0  0
   -1.5761   -1.8790    5.6178 H   0  0  0  0  0  0  0  0  0  0  0  0
   -3.4249   -1.3437    3.5541 C   0  0  0  0  0  0  0  0  0  0  0  0
   -2.5364   -2.9351    1.9931 C   0  0  0  0  0  0  0  0  0  0  0  0
    3.2391   -1.5829    5.2533 C   0  0  0  0  0  0  0  0  0  0  0  0
    3.1307   -1.5775    3.0999 H   0  0  0  0  0  0  0  0  0  0  0  0
    1.1492   -1.6504    6.4715 C   0  0  0  0  0  0  0  0  0  0  0  0
   -4.6909   -1.5473    3.0400 C   0  0  0  0  0  0  0  0  0  0  0  0
   -3.2771   -0.6276    4.3499 H   0  0  0  0  0  0  0  0  0  0  0  0
   -3.8050   -3.1390    1.4846 C   0  0  0  0  0  0  0  0  0  0  0  0
   -1.6955   -3.4871    1.6020 H   0  0  0  0  0  0  0  0  0  0  0  0
    2.5268   -1.6015    6.4580 C   0  0  0  0  0  0  0  0  0  0  0  0
    4.3194   -1.5615    5.2912 H   0  0  0  0  0  0  0  0  0  0  0  0
    0.5988   -1.6787    7.4009 H   0  0  0  0  0  0  0  0  0  0  0  0
   -4.8861   -2.4428    2.0009 C   0  0  0  0  0  0  0  0  0  0  0  0
   -5.5304   -1.0030    3.4486 H   0  0  0  0  0  0  0  0  0  0  0  0
   -3.9536   -3.8476    0.6822 H   0  0  0  0  0  0  0  0  0  0  0  0
    3.0694   -1.5853    7.3925 H   0  0  0  0  0  0  0  0  0  0  0  0
   -5.8766   -2.6003    1.5997 H   0  0  0  0  0  0  0  0  0  0  0  0
  1  2  4  0  0  0  0
  2  3  4  0  0  0  0
  3  4  4  0  0  0  0
  4  5  4  0  0  0  0
  1  6  4  0  0  0  0
  5  6  4  0  0  0  0
  6  7  1  0  0  0  0
  5  8  1  0  0  0  0
  3  9  1  0  0  0  0
  2 10  1  0  0  0  0
 10 11  4  0  0  0  0
 11 12  4  0  0  0  0
 12 13  4  0  0  0  0
 13 14  4  0  0  0  0
 10 15  4  0  0  0  0
 14 15  4  0  0  0  0
 15 16  1  0  0  0  0
 13 17  1  0  0  0  0
 12 18  1  0  0  0  0
  1 19  1  0  0  0  0
 11 19  1  0  0  0  0
 19 20  1  0  0  0  0
 19 21  1  0  0  0  0
 21 22  1  0  0  0  0
 22 23  1  0  0  0  0
 23 24  1  0  0  0  0
 24 25  1  0  0  0  0
 24 26  1  0  0  0  0
 24 27  1  0  0  0  0
 23 28  1  0  0  0  0
 28 29  1  0  0  0  0
 28 30  1  0  0  0  0
 28 31  1  0  0  0  0
 23 32  1  0  0  0  0
 21 33  1  0  0  0  0
 32 33  1  0  0  0  0
 32 34  1  0  0  0  0
 34 35  1  0  0  0  0
 34 36  1  0  0  0  0
 34 37  1  0  0  0  0
 32 38  1  0  0  0  0
 38 39  1  0  0  0  0
 38 40  1  0  0  0  0
 38 41  1  0  0  0  0
 19 42  1  0  0  0  0
 42 43  1  0  0  0  0
 43 44  1  0  0  0  0
 44 45  1  0  0  0  0
 45 46  1  0  0  0  0
 45 47  1  0  0  0  0
 45 48  1  0  0  0  0
 44 49  1  0  0  0  0
 49 50  1  0  0  0  0
 49 51  1  0  0  0  0
 49 52  1  0  0  0  0
 44 53  1  0  0  0  0
 42 54  1  0  0  0  0
 53 54  1  0  0  0  0
 53 55  1  0  0  0  0
 55 56  1  0  0  0  0
 55 57  1  0  0  0  0
 55 58  1  0  0  0  0
 53 59  1  0  0  0  0
 59 60  1  0  0  0  0
 59 61  1  0  0  0  0
 59 62  1  0  0  0  0
 19 63  1  0  0  0  0
 63 64  1  0  0  0  0
 64 65  1  0  0  0  0
 65 66  1  0  0  0  0
 66 67  1  0  0  0  0
 66 68  1  0  0  0  0
 66 69  1  0  0  0  0
 65 70  1  0  0  0  0
 70 71  1  0  0  0  0
 70 72  1  0  0  0  0
 70 73  1  0  0  0  0
 65 74  1  0  0  0  0
 63 75  1  0  0  0  0
 74 75  1  0  0  0  0
 74 76  1  0  0  0  0
 76 77  1  0  0  0  0
 76 78  1  0  0  0  0
 76 79  1  0  0  0  0
 74 80  1  0  0  0  0
 80 81  1  0  0  0  0
 80 82  1  0  0  0  0
 80 83  1  0  0  0  0
  4 84  1  0  0  0  0
 14 85  1  0  0  0  0
 19 86  1  0  0  0  0
 20 86  1  0  0  0  0
 86 87  4  0  0  0  0
 86 88  4  0  0  0  0
 87 89  1  0  0  0  0
 87 90  1  0  0  0  0
 88 91  4  0  0  0  0
 88 92  4  0  0  0  0
 89 92  1  0  0  0  0
 89 93  1  0  0  0  0
 90 94  4  0  0  0  0
 90 95  4  0  0  0  0
 91 96  2  0  0  0  0
 91 97  1  0  0  0  0
 92 98  4  0  0  0  0
 94 99  4  0  0  0  0
 94100  1  0  0  0  0
 95101  4  0  0  0  0
 95102  1  0  0  0  0
 96103  4  0  0  0  0
 98103  4  0  0  0  0
 96104  1  0  0  0  0
 98105  1  0  0  0  0
 99106  4  0  0  0  0
101106  4  0  0  0  0
 99107  1  0  0  0  0
101108  1  0  0  0  0
103109  1  0  0  0  0
106110  1  0  0  0  0
M  END
