   29

C          0.98067        1.32778        0.00355
C          2.12837        0.54434        0.00787
C          1.99119       -0.83528        0.00272
N          0.82184       -1.52013       -0.01016
C         -0.27546       -0.72921       -0.01533
N         -1.60426       -1.14240       -0.03217
C         -2.17457       -2.42870       -0.05264
O         -3.39068       -2.53103       -0.09531
O         -1.26817       -3.44153       -0.00380
C         -1.78683       -4.80468        0.03664
C         -2.56231       -5.15117       -1.24528
C         -0.57040       -5.74247        0.11601
C         -2.63520       -5.03857        1.29767
C         -2.39502        0.00925       -0.02513
C         -1.59876        1.12369       -0.01086
C         -0.26135        0.67205       -0.00663
H          3.11063        1.00529        0.01605
H          2.87959       -1.46360        0.00939
H         -1.92968       -5.01320       -2.12950
H         -3.43959       -4.51595       -1.39255
H         -2.91367       -6.18881       -1.23009
H          0.07846       -5.62539       -0.75869
H         -0.88162       -6.79294        0.17171
H          0.04216       -5.52051        0.99660
H         -3.53654       -4.42048        1.31948
H         -2.06386       -4.78563        2.19806
H         -2.95939       -6.08211        1.37343
H         -3.47416       -0.08699       -0.02870
H         -1.94604        2.14864       -0.00280
