   29
Created with kallisto
C      0.9807    1.3278    0.0036
C      2.1284    0.5443    0.0079
C     -0.2614    0.6721   -0.0066
C      1.9912   -0.8353    0.0027
H      3.1106    1.0053    0.0160
C     -0.2755   -0.7292   -0.0153
C     -1.5988    1.1237   -0.0109
N      0.8218   -1.5201   -0.0102
H      2.8796   -1.4636    0.0094
N     -1.6043   -1.1424   -0.0322
C     -2.3950    0.0092   -0.0251
H     -1.9460    2.1486   -0.0028
C     -2.1746   -2.4287   -0.0526
H     -3.4742   -0.0870   -0.0287
O     -3.3907   -2.5310   -0.0953
O     -1.2682   -3.4415   -0.0038
C     -1.7868   -4.8047    0.0366
C     -2.5623   -5.1512   -1.2453
C     -0.5704   -5.7425    0.1160
C     -2.6352   -5.0386    1.2977
H     -1.9297   -5.0132   -2.1295
H     -3.4396   -4.5160   -1.3925
H     -2.9137   -6.1888   -1.2301
H      0.0785   -5.6254   -0.7587
H     -0.8816   -6.7929    0.1717
H      0.0422   -5.5205    0.9966
H     -3.5365   -4.4205    1.3195
H     -2.0639   -4.7856    2.1981
H     -2.9594   -6.0821    1.3734
