
  xtb     01142213443D
 xtb: 6.4.1 (1a32961)
 99106  0     0  0            999 V2000
   -1.0501   -2.0352   -0.2396 N   0  0  0  0  0  0  0  0  0  0  0  0
   -2.2905   -1.5247   -0.3249 C   0  0  0  0  0  0  0  0  0  0  0  0
   -3.2218   -2.0421   -1.2319 C   0  0  0  0  0  0  0  0  0  0  0  0
   -2.8711   -3.0996   -2.0445 C   0  0  0  0  0  0  0  0  0  0  0  0
   -1.5883   -3.6265   -1.9349 C   0  0  0  0  0  0  0  0  0  0  0  0
   -0.7216   -3.0564   -1.0241 C   0  0  0  0  0  0  0  0  0  0  0  0
    0.2866   -3.4277   -0.9068 H   0  0  0  0  0  0  0  0  0  0  0  0
   -1.2716   -4.4557   -2.5461 H   0  0  0  0  0  0  0  0  0  0  0  0
   -4.2069   -1.6134   -1.3128 H   0  0  0  0  0  0  0  0  0  0  0  0
   -2.5915   -0.4005    0.5591 C   0  0  0  0  0  0  0  0  0  0  0  0
   -1.5598    0.1100    1.2578 N   0  0  0  0  0  0  0  0  0  0  0  0
   -1.7788    1.1410    2.0681 C   0  0  0  0  0  0  0  0  0  0  0  0
   -3.0211    1.7209    2.2398 C   0  0  0  0  0  0  0  0  0  0  0  0
   -4.0994    1.2012    1.5317 C   0  0  0  0  0  0  0  0  0  0  0  0
   -3.8786    0.1341    0.6858 C   0  0  0  0  0  0  0  0  0  0  0  0
   -4.7041   -0.2885    0.1380 H   0  0  0  0  0  0  0  0  0  0  0  0
   -3.1449    2.5512    2.9158 H   0  0  0  0  0  0  0  0  0  0  0  0
   -0.9101    1.5050    2.5964 H   0  0  0  0  0  0  0  0  0  0  0  0
    0.4215   -0.8165    0.9133 Ir  0  0  0  0  0  0  0  0  0  0  0  0
    0.8726   -2.2303    1.5405 H   0  0  0  0  0  0  0  0  0  0  0  0
    0.3113    0.5115   -0.6793 B   0  0  0  0  0  0  0  0  0  0  0  0
   -0.2464    0.1161   -1.8810 O   0  0  0  0  0  0  0  0  0  0  0  0
   -0.4744    1.2604   -2.7128 C   0  0  0  0  0  0  0  0  0  0  0  0
   -0.1469    0.9166   -4.1630 C   0  0  0  0  0  0  0  0  0  0  0  0
    0.8429    0.4794   -4.2379 H   0  0  0  0  0  0  0  0  0  0  0  0
   -0.2019    1.8091   -4.7809 H   0  0  0  0  0  0  0  0  0  0  0  0
   -0.8685    0.1900   -4.5283 H   0  0  0  0  0  0  0  0  0  0  0  0
   -1.9657    1.6082   -2.5973 C   0  0  0  0  0  0  0  0  0  0  0  0
   -2.2256    2.4415   -3.2433 H   0  0  0  0  0  0  0  0  0  0  0  0
   -2.5484    0.7365   -2.8882 H   0  0  0  0  0  0  0  0  0  0  0  0
   -2.2132    1.8516   -1.5658 H   0  0  0  0  0  0  0  0  0  0  0  0
    0.4489    2.3386   -2.0593 C   0  0  0  0  0  0  0  0  0  0  0  0
    0.5689    1.8632   -0.7099 O   0  0  0  0  0  0  0  0  0  0  0  0
    1.8608    2.3317   -2.6562 C   0  0  0  0  0  0  0  0  0  0  0  0
    2.2748    1.3294   -2.5741 H   0  0  0  0  0  0  0  0  0  0  0  0
    1.8556    2.6637   -3.6904 H   0  0  0  0  0  0  0  0  0  0  0  0
    2.4894    2.9981   -2.0713 H   0  0  0  0  0  0  0  0  0  0  0  0
   -0.1071    3.7605   -2.0683 C   0  0  0  0  0  0  0  0  0  0  0  0
   -1.0249    3.8297   -1.4928 H   0  0  0  0  0  0  0  0  0  0  0  0
    0.6240    4.4310   -1.6233 H   0  0  0  0  0  0  0  0  0  0  0  0
   -0.2959    4.0778   -3.0906 H   0  0  0  0  0  0  0  0  0  0  0  0
    1.6727    0.6506    1.7468 B   0  0  0  0  0  0  0  0  0  0  0  0
    2.9258    1.0426    1.3797 O   0  0  0  0  0  0  0  0  0  0  0  0
    3.2980    2.2612    2.0353 C   0  0  0  0  0  0  0  0  0  0  0  0
    4.7193    2.1177    2.5814 C   0  0  0  0  0  0  0  0  0  0  0  0
    4.8026    1.2196    3.1846 H   0  0  0  0  0  0  0  0  0  0  0  0
    5.4107    2.0276    1.7473 H   0  0  0  0  0  0  0  0  0  0  0  0
    4.9930    2.9881    3.1709 H   0  0  0  0  0  0  0  0  0  0  0  0
    3.2729    3.3579    0.9636 C   0  0  0  0  0  0  0  0  0  0  0  0
    3.5094    4.3310    1.3832 H   0  0  0  0  0  0  0  0  0  0  0  0
    4.0097    3.1097    0.2033 H   0  0  0  0  0  0  0  0  0  0  0  0
    2.2957    3.3720    0.4893 H   0  0  0  0  0  0  0  0  0  0  0  0
    2.1853    2.4340    3.1328 C   0  0  0  0  0  0  0  0  0  0  0  0
    1.1956    1.4685    2.7491 O   0  0  0  0  0  0  0  0  0  0  0  0
    1.5286    3.8157    3.1691 C   0  0  0  0  0  0  0  0  0  0  0  0
    1.0383    4.0323    2.2258 H   0  0  0  0  0  0  0  0  0  0  0  0
    0.7781    3.8279    3.9559 H   0  0  0  0  0  0  0  0  0  0  0  0
    2.2698    4.5805    3.3825 H   0  0  0  0  0  0  0  0  0  0  0  0
    2.6550    2.0729    4.5463 C   0  0  0  0  0  0  0  0  0  0  0  0
    3.0727    1.0718    4.5494 H   0  0  0  0  0  0  0  0  0  0  0  0
    3.3933    2.7825    4.9067 H   0  0  0  0  0  0  0  0  0  0  0  0
    1.7964    2.0828    5.2141 H   0  0  0  0  0  0  0  0  0  0  0  0
    2.2782   -1.3309    0.1741 B   0  0  0  0  0  0  0  0  0  0  0  0
    3.0899   -2.3346    0.6535 O   0  0  0  0  0  0  0  0  0  0  0  0
    4.3671   -2.2806    0.0026 C   0  0  0  0  0  0  0  0  0  0  0  0
    5.3082   -1.5335    0.9511 C   0  0  0  0  0  0  0  0  0  0  0  0
    4.8914   -0.5518    1.1546 H   0  0  0  0  0  0  0  0  0  0  0  0
    5.3419   -2.0731    1.8938 H   0  0  0  0  0  0  0  0  0  0  0  0
    6.3111   -1.4545    0.5425 H   0  0  0  0  0  0  0  0  0  0  0  0
    4.8869   -3.6989   -0.2273 C   0  0  0  0  0  0  0  0  0  0  0  0
    5.0754   -4.1628    0.7372 H   0  0  0  0  0  0  0  0  0  0  0  0
    5.8146   -3.6682   -0.7921 H   0  0  0  0  0  0  0  0  0  0  0  0
    4.1596   -4.3051   -0.7570 H   0  0  0  0  0  0  0  0  0  0  0  0
    4.0522   -1.4677   -1.3000 C   0  0  0  0  0  0  0  0  0  0  0  0
    2.8372   -0.7832   -0.9581 O   0  0  0  0  0  0  0  0  0  0  0  0
    5.1153   -0.4433   -1.6901 C   0  0  0  0  0  0  0  0  0  0  0  0
    6.0772   -0.9298   -1.8254 H   0  0  0  0  0  0  0  0  0  0  0  0
    4.8263    0.0331   -2.6235 H   0  0  0  0  0  0  0  0  0  0  0  0
    5.1925    0.3228   -0.9269 H   0  0  0  0  0  0  0  0  0  0  0  0
    3.7410   -2.3622   -2.5080 C   0  0  0  0  0  0  0  0  0  0  0  0
    2.9702   -3.0830   -2.2496 H   0  0  0  0  0  0  0  0  0  0  0  0
    3.3593   -1.7377   -3.3119 H   0  0  0  0  0  0  0  0  0  0  0  0
    4.6317   -2.8795   -2.8515 H   0  0  0  0  0  0  0  0  0  0  0  0
   -3.5775   -3.5058   -2.7523 H   0  0  0  0  0  0  0  0  0  0  0  0
   -5.0885    1.6190    1.6420 H   0  0  0  0  0  0  0  0  0  0  0  0
    0.2359   -1.6814    2.9603 C   0  0  0  0  0  0  0  0  0  0  0  0
   -1.0602   -1.9979    3.1608 O   0  0  0  0  0  0  0  0  0  0  0  0
    0.8978   -1.7706    4.1781 C   0  0  0  0  0  0  0  0  0  0  0  0
   -1.2538   -2.2411    4.4817 C   0  0  0  0  0  0  0  0  0  0  0  0
   -0.0894   -2.1172    5.1566 C   0  0  0  0  0  0  0  0  0  0  0  0
    2.3060   -1.5784    4.4424 C   0  0  0  0  0  0  0  0  0  0  0  0
   -2.2512   -2.4803    4.7931 H   0  0  0  0  0  0  0  0  0  0  0  0
    0.0824   -2.2517    6.2037 H   0  0  0  0  0  0  0  0  0  0  0  0
    3.1499   -1.2078    3.6528 O   0  0  0  0  0  0  0  0  0  0  0  0
    2.6016   -1.8688    5.7342 O   0  0  0  0  0  0  0  0  0  0  0  0
    3.9578   -1.7587    6.1510 C   0  0  0  0  0  0  0  0  0  0  0  0
    4.5330   -1.2050    5.4065 H   0  0  0  0  0  0  0  0  0  0  0  0
    4.3751   -2.7607    6.2653 H   0  0  0  0  0  0  0  0  0  0  0  0
    3.9638   -1.2371    7.1069 H   0  0  0  0  0  0  0  0  0  0  0  0
  1  2  4  0  0  0  0
  2  3  4  0  0  0  0
  3  4  4  0  0  0  0
  4  5  4  0  0  0  0
  1  6  4  0  0  0  0
  5  6  4  0  0  0  0
  6  7  1  0  0  0  0
  5  8  1  0  0  0  0
  3  9  1  0  0  0  0
  2 10  1  0  0  0  0
 10 11  4  0  0  0  0
 11 12  4  0  0  0  0
 12 13  4  0  0  0  0
 13 14  4  0  0  0  0
 10 15  4  0  0  0  0
 14 15  4  0  0  0  0
 15 16  1  0  0  0  0
 13 17  1  0  0  0  0
 12 18  1  0  0  0  0
  1 19  1  0  0  0  0
 11 19  1  0  0  0  0
 19 20  1  0  0  0  0
 19 21  1  0  0  0  0
 21 22  1  0  0  0  0
 22 23  1  0  0  0  0
 23 24  1  0  0  0  0
 24 25  1  0  0  0  0
 24 26  1  0  0  0  0
 24 27  1  0  0  0  0
 23 28  1  0  0  0  0
 28 29  1  0  0  0  0
 28 30  1  0  0  0  0
 28 31  1  0  0  0  0
 23 32  1  0  0  0  0
 21 33  1  0  0  0  0
 32 33  1  0  0  0  0
 32 34  1  0  0  0  0
 34 35  1  0  0  0  0
 34 36  1  0  0  0  0
 34 37  1  0  0  0  0
 32 38  1  0  0  0  0
 38 39  1  0  0  0  0
 38 40  1  0  0  0  0
 38 41  1  0  0  0  0
 19 42  1  0  0  0  0
 42 43  1  0  0  0  0
 43 44  1  0  0  0  0
 44 45  1  0  0  0  0
 45 46  1  0  0  0  0
 45 47  1  0  0  0  0
 45 48  1  0  0  0  0
 44 49  1  0  0  0  0
 49 50  1  0  0  0  0
 49 51  1  0  0  0  0
 49 52  1  0  0  0  0
 44 53  1  0  0  0  0
 42 54  1  0  0  0  0
 53 54  1  0  0  0  0
 53 55  1  0  0  0  0
 55 56  1  0  0  0  0
 55 57  1  0  0  0  0
 55 58  1  0  0  0  0
 53 59  1  0  0  0  0
 59 60  1  0  0  0  0
 59 61  1  0  0  0  0
 59 62  1  0  0  0  0
 19 63  1  0  0  0  0
 63 64  1  0  0  0  0
 64 65  1  0  0  0  0
 65 66  1  0  0  0  0
 66 67  1  0  0  0  0
 66 68  1  0  0  0  0
 66 69  1  0  0  0  0
 65 70  1  0  0  0  0
 70 71  1  0  0  0  0
 70 72  1  0  0  0  0
 70 73  1  0  0  0  0
 65 74  1  0  0  0  0
 63 75  1  0  0  0  0
 74 75  1  0  0  0  0
 74 76  1  0  0  0  0
 76 77  1  0  0  0  0
 76 78  1  0  0  0  0
 76 79  1  0  0  0  0
 74 80  1  0  0  0  0
 80 81  1  0  0  0  0
 80 82  1  0  0  0  0
 80 83  1  0  0  0  0
  4 84  1  0  0  0  0
 14 85  1  0  0  0  0
 19 86  1  0  0  0  0
 20 86  1  0  0  0  0
 86 87  1  0  0  0  0
 86 88  4  0  0  0  0
 87 89  1  0  0  0  0
 88 90  4  0  0  0  0
 89 90  2  0  0  0  0
 88 91  1  0  0  0  0
 89 92  1  0  0  0  0
 90 93  1  0  0  0  0
 91 94  2  0  0  0  0
 91 95  1  0  0  0  0
 95 96  1  0  0  0  0
 96 97  1  0  0  0  0
 96 98  1  0  0  0  0
 96 99  1  0  0  0  0
M  END
