
  xtb     01142215143D
 xtb: 6.4.1 (1a32961)
111118  0     0  0            999 V2000
   -1.0097   -2.1722   -0.2270 N   0  0  0  0  0  0  0  0  0  0  0  0
   -2.2686   -1.7215   -0.3571 C   0  0  0  0  0  0  0  0  0  0  0  0
   -3.1625   -2.3333   -1.2446 C   0  0  0  0  0  0  0  0  0  0  0  0
   -2.7493   -3.4117   -1.9976 C   0  0  0  0  0  0  0  0  0  0  0  0
   -1.4415   -3.8638   -1.8542 C   0  0  0  0  0  0  0  0  0  0  0  0
   -0.6187   -3.2070   -0.9612 C   0  0  0  0  0  0  0  0  0  0  0  0
    0.4064   -3.5174   -0.8191 H   0  0  0  0  0  0  0  0  0  0  0  0
   -1.0752   -4.7029   -2.4228 H   0  0  0  0  0  0  0  0  0  0  0  0
   -4.1696   -1.9660   -1.3540 H   0  0  0  0  0  0  0  0  0  0  0  0
   -2.6341   -0.5662    0.4599 C   0  0  0  0  0  0  0  0  0  0  0  0
   -1.6500   -0.0027    1.1900 N   0  0  0  0  0  0  0  0  0  0  0  0
   -1.9373    1.0540    1.9439 C   0  0  0  0  0  0  0  0  0  0  0  0
   -3.1976    1.6131    2.0239 C   0  0  0  0  0  0  0  0  0  0  0  0
   -4.2246    1.0433    1.2779 C   0  0  0  0  0  0  0  0  0  0  0  0
   -3.9357   -0.0523    0.4919 C   0  0  0  0  0  0  0  0  0  0  0  0
   -4.7210   -0.5097   -0.0866 H   0  0  0  0  0  0  0  0  0  0  0  0
   -3.3747    2.4657    2.6594 H   0  0  0  0  0  0  0  0  0  0  0  0
   -1.1062    1.4600    2.5008 H   0  0  0  0  0  0  0  0  0  0  0  0
    0.4215   -0.8165    0.9133 Ir  0  0  0  0  0  0  0  0  0  0  0  0
    0.8726   -2.2303    1.5405 H   0  0  0  0  0  0  0  0  0  0  0  0
    0.2024    0.4984   -0.6942 B   0  0  0  0  0  0  0  0  0  0  0  0
   -0.4829    0.0515   -1.8113 O   0  0  0  0  0  0  0  0  0  0  0  0
   -0.7743    1.1482   -2.6834 C   0  0  0  0  0  0  0  0  0  0  0  0
   -0.5978    0.7146   -4.1365 C   0  0  0  0  0  0  0  0  0  0  0  0
    0.3683    0.2434   -4.2818 H   0  0  0  0  0  0  0  0  0  0  0  0
   -0.6900    1.5731   -4.7970 H   0  0  0  0  0  0  0  0  0  0  0  0
   -1.3700   -0.0080   -4.3896 H   0  0  0  0  0  0  0  0  0  0  0  0
   -2.2417    1.5356   -2.4479 C   0  0  0  0  0  0  0  0  0  0  0  0
   -2.5508    2.3296   -3.1212 H   0  0  0  0  0  0  0  0  0  0  0  0
   -2.8643    0.6600   -2.6215 H   0  0  0  0  0  0  0  0  0  0  0  0
   -2.3855    1.8527   -1.4168 H   0  0  0  0  0  0  0  0  0  0  0  0
    0.2256    2.2433   -2.1904 C   0  0  0  0  0  0  0  0  0  0  0  0
    0.4843    1.8393   -0.8387 O   0  0  0  0  0  0  0  0  0  0  0  0
    1.5643    2.1827   -2.9363 C   0  0  0  0  0  0  0  0  0  0  0  0
    1.9646    1.1737   -2.8696 H   0  0  0  0  0  0  0  0  0  0  0  0
    1.4518    2.4802   -3.9749 H   0  0  0  0  0  0  0  0  0  0  0  0
    2.2678    2.8537   -2.4491 H   0  0  0  0  0  0  0  0  0  0  0  0
   -0.3143    3.6717   -2.2169 C   0  0  0  0  0  0  0  0  0  0  0  0
   -1.1564    3.7879   -1.5410 H   0  0  0  0  0  0  0  0  0  0  0  0
    0.4692    4.3571   -1.9019 H   0  0  0  0  0  0  0  0  0  0  0  0
   -0.6222    3.9333   -3.2260 H   0  0  0  0  0  0  0  0  0  0  0  0
    1.5464    0.8087    1.5922 B   0  0  0  0  0  0  0  0  0  0  0  0
    2.7378    1.2953    1.1361 O   0  0  0  0  0  0  0  0  0  0  0  0
    3.0330    2.5725    1.7164 C   0  0  0  0  0  0  0  0  0  0  0  0
    4.3332    2.4422    2.5153 C   0  0  0  0  0  0  0  0  0  0  0  0
    4.2373    1.6375    3.2357 H   0  0  0  0  0  0  0  0  0  0  0  0
    5.1409    2.1939    1.8313 H   0  0  0  0  0  0  0  0  0  0  0  0
    4.5738    3.3722    3.0211 H   0  0  0  0  0  0  0  0  0  0  0  0
    3.2537    3.5592    0.5652 C   0  0  0  0  0  0  0  0  0  0  0  0
    3.4292    4.5630    0.9413 H   0  0  0  0  0  0  0  0  0  0  0  0
    4.1243    3.2405   -0.0035 H   0  0  0  0  0  0  0  0  0  0  0  0
    2.3952    3.5516   -0.0979 H   0  0  0  0  0  0  0  0  0  0  0  0
    1.7628    2.8773    2.5988 C   0  0  0  0  0  0  0  0  0  0  0  0
    0.9769    1.6858    2.4799 O   0  0  0  0  0  0  0  0  0  0  0  0
    0.8999    4.0305    2.0705 C   0  0  0  0  0  0  0  0  0  0  0  0
    0.5579    3.8016    1.0651 H   0  0  0  0  0  0  0  0  0  0  0  0
    0.0269    4.1356    2.7111 H   0  0  0  0  0  0  0  0  0  0  0  0
    1.4500    4.9664    2.0746 H   0  0  0  0  0  0  0  0  0  0  0  0
    2.0590    3.1032    4.0826 C   0  0  0  0  0  0  0  0  0  0  0  0
    2.5370    2.2231    4.4998 H   0  0  0  0  0  0  0  0  0  0  0  0
    2.6908    3.9753    4.2223 H   0  0  0  0  0  0  0  0  0  0  0  0
    1.1205    3.2603    4.6098 H   0  0  0  0  0  0  0  0  0  0  0  0
    2.2782   -1.3309    0.1741 B   0  0  0  0  0  0  0  0  0  0  0  0
    3.3773   -1.8527    0.8173 O   0  0  0  0  0  0  0  0  0  0  0  0
    4.5084   -1.8424   -0.0693 C   0  0  0  0  0  0  0  0  0  0  0  0
    5.3297   -0.5952    0.2676 C   0  0  0  0  0  0  0  0  0  0  0  0
    4.6902    0.2790    0.1856 H   0  0  0  0  0  0  0  0  0  0  0  0
    5.6611   -0.6656    1.3003 H   0  0  0  0  0  0  0  0  0  0  0  0
    6.1973   -0.5040   -0.3789 H   0  0  0  0  0  0  0  0  0  0  0  0
    5.3621   -3.0891    0.1542 C   0  0  0  0  0  0  0  0  0  0  0  0
    5.8116   -3.0343    1.1412 H   0  0  0  0  0  0  0  0  0  0  0  0
    6.1533   -3.1297   -0.5892 H   0  0  0  0  0  0  0  0  0  0  0  0
    4.7653   -3.9929    0.0974 H   0  0  0  0  0  0  0  0  0  0  0  0
    3.8353   -1.7532   -1.4810 C   0  0  0  0  0  0  0  0  0  0  0  0
    2.5402   -1.2146   -1.1752 O   0  0  0  0  0  0  0  0  0  0  0  0
    4.5432   -0.8374   -2.4772 C   0  0  0  0  0  0  0  0  0  0  0  0
    5.5672   -1.1668   -2.6303 H   0  0  0  0  0  0  0  0  0  0  0  0
    4.0174   -0.8734   -3.4281 H   0  0  0  0  0  0  0  0  0  0  0  0
    4.5367    0.1878   -2.1229 H   0  0  0  0  0  0  0  0  0  0  0  0
    3.6153   -3.1275   -2.1290 C   0  0  0  0  0  0  0  0  0  0  0  0
    3.1097   -3.7927   -1.4344 H   0  0  0  0  0  0  0  0  0  0  0  0
    2.9789   -3.0006   -3.0013 H   0  0  0  0  0  0  0  0  0  0  0  0
    4.5581   -3.5675   -2.4391 H   0  0  0  0  0  0  0  0  0  0  0  0
   -3.4279   -3.8905   -2.6875 H   0  0  0  0  0  0  0  0  0  0  0  0
   -5.2259    1.4455    1.3136 H   0  0  0  0  0  0  0  0  0  0  0  0
    0.2359   -1.6814    2.9603 C   0  0  0  0  0  0  0  0  0  0  0  0
   -1.0756   -2.0570    3.2615 C   0  0  0  0  0  0  0  0  0  0  0  0
    1.0884   -1.5354    4.0619 C   0  0  0  0  0  0  0  0  0  0  0  0
   -1.5179   -2.1074    4.5744 C   0  0  0  0  0  0  0  0  0  0  0  0
   -1.7649   -2.3216    2.4713 H   0  0  0  0  0  0  0  0  0  0  0  0
    2.5718   -1.2942    3.9655 C   0  0  0  0  0  0  0  0  0  0  0  0
    0.6706   -1.5895    5.3251 N   0  0  0  0  0  0  0  0  0  0  0  0
   -0.6061   -1.8268    5.5767 C   0  0  0  0  0  0  0  0  0  0  0  0
   -2.5384   -2.3714    4.8102 H   0  0  0  0  0  0  0  0  0  0  0  0
    3.0261   -0.1572    3.9341 O   0  0  0  0  0  0  0  0  0  0  0  0
    3.3560   -2.3808    4.0358 N   0  0  0  0  0  0  0  0  0  0  0  0
   -0.8823   -1.8296    6.6232 H   0  0  0  0  0  0  0  0  0  0  0  0
    2.8594   -3.7369    4.1257 C   0  0  0  0  0  0  0  0  0  0  0  0
    4.7960   -2.1985    4.0319 C   0  0  0  0  0  0  0  0  0  0  0  0
    2.9749   -4.4880    2.7991 C   0  0  0  0  0  0  0  0  0  0  0  0
    1.8155   -3.7001    4.4367 H   0  0  0  0  0  0  0  0  0  0  0  0
    3.4250   -4.2582    4.9040 H   0  0  0  0  0  0  0  0  0  0  0  0
    5.3516   -2.0192    5.4429 C   0  0  0  0  0  0  0  0  0  0  0  0
    5.0030   -1.3065    3.4374 H   0  0  0  0  0  0  0  0  0  0  0  0
    5.2491   -3.0652    3.5507 H   0  0  0  0  0  0  0  0  0  0  0  0
    2.6308   -3.8450    1.9931 H   0  0  0  0  0  0  0  0  0  0  0  0
    2.3696   -5.3896    2.8315 H   0  0  0  0  0  0  0  0  0  0  0  0
    4.0046   -4.7696    2.5988 H   0  0  0  0  0  0  0  0  0  0  0  0
    4.8984   -1.1467    5.9057 H   0  0  0  0  0  0  0  0  0  0  0  0
    6.4281   -1.8762    5.4016 H   0  0  0  0  0  0  0  0  0  0  0  0
    5.1362   -2.8898    6.0578 H   0  0  0  0  0  0  0  0  0  0  0  0
  1  2  4  0  0  0  0
  2  3  4  0  0  0  0
  3  4  4  0  0  0  0
  4  5  4  0  0  0  0
  1  6  4  0  0  0  0
  5  6  4  0  0  0  0
  6  7  1  0  0  0  0
  5  8  1  0  0  0  0
  3  9  1  0  0  0  0
  2 10  1  0  0  0  0
 10 11  4  0  0  0  0
 11 12  4  0  0  0  0
 12 13  4  0  0  0  0
 13 14  4  0  0  0  0
 10 15  4  0  0  0  0
 14 15  4  0  0  0  0
 15 16  1  0  0  0  0
 13 17  1  0  0  0  0
 12 18  1  0  0  0  0
  1 19  1  0  0  0  0
 11 19  1  0  0  0  0
 19 20  1  0  0  0  0
 19 21  1  0  0  0  0
 21 22  1  0  0  0  0
 22 23  1  0  0  0  0
 23 24  1  0  0  0  0
 24 25  1  0  0  0  0
 24 26  1  0  0  0  0
 24 27  1  0  0  0  0
 23 28  1  0  0  0  0
 28 29  1  0  0  0  0
 28 30  1  0  0  0  0
 28 31  1  0  0  0  0
 23 32  1  0  0  0  0
 21 33  1  0  0  0  0
 32 33  1  0  0  0  0
 32 34  1  0  0  0  0
 34 35  1  0  0  0  0
 34 36  1  0  0  0  0
 34 37  1  0  0  0  0
 32 38  1  0  0  0  0
 38 39  1  0  0  0  0
 38 40  1  0  0  0  0
 38 41  1  0  0  0  0
 19 42  1  0  0  0  0
 42 43  1  0  0  0  0
 43 44  1  0  0  0  0
 44 45  1  0  0  0  0
 45 46  1  0  0  0  0
 45 47  1  0  0  0  0
 45 48  1  0  0  0  0
 44 49  1  0  0  0  0
 49 50  1  0  0  0  0
 49 51  1  0  0  0  0
 49 52  1  0  0  0  0
 44 53  1  0  0  0  0
 42 54  1  0  0  0  0
 53 54  1  0  0  0  0
 53 55  1  0  0  0  0
 55 56  1  0  0  0  0
 55 57  1  0  0  0  0
 55 58  1  0  0  0  0
 53 59  1  0  0  0  0
 59 60  1  0  0  0  0
 59 61  1  0  0  0  0
 59 62  1  0  0  0  0
 19 63  1  0  0  0  0
 63 64  1  0  0  0  0
 64 65  1  0  0  0  0
 65 66  1  0  0  0  0
 66 67  1  0  0  0  0
 66 68  1  0  0  0  0
 66 69  1  0  0  0  0
 65 70  1  0  0  0  0
 70 71  1  0  0  0  0
 70 72  1  0  0  0  0
 70 73  1  0  0  0  0
 65 74  1  0  0  0  0
 63 75  1  0  0  0  0
 74 75  1  0  0  0  0
 74 76  1  0  0  0  0
 76 77  1  0  0  0  0
 76 78  1  0  0  0  0
 76 79  1  0  0  0  0
 74 80  1  0  0  0  0
 80 81  1  0  0  0  0
 80 82  1  0  0  0  0
 80 83  1  0  0  0  0
  4 84  1  0  0  0  0
 14 85  1  0  0  0  0
 19 86  1  0  0  0  0
 20 86  1  0  0  0  0
 86 87  4  0  0  0  0
 86 88  4  0  0  0  0
 87 89  4  0  0  0  0
 87 90  1  0  0  0  0
 88 91  1  0  0  0  0
 88 92  4  0  0  0  0
 89 93  4  0  0  0  0
 92 93  4  0  0  0  0
 89 94  1  0  0  0  0
 91 95  2  0  0  0  0
 91 96  4  0  0  0  0
 93 97  1  0  0  0  0
 96 98  1  0  0  0  0
 96 99  1  0  0  0  0
 98100  1  0  0  0  0
 98101  1  0  0  0  0
 98102  1  0  0  0  0
 99103  1  0  0  0  0
 99104  1  0  0  0  0
 99105  1  0  0  0  0
100106  1  0  0  0  0
100107  1  0  0  0  0
100108  1  0  0  0  0
103109  1  0  0  0  0
103110  1  0  0  0  0
103111  1  0  0  0  0
M  END
