
  xtb     01142213233D
 xtb: 6.4.1 (1a32961)
105113  0     0  0            999 V2000
   -0.9045   -2.0590   -0.3519 N   0  0  0  0  0  0  0  0  0  0  0  0
   -2.1783   -1.6391   -0.4774 C   0  0  0  0  0  0  0  0  0  0  0  0
   -3.0811   -2.3194   -1.3065 C   0  0  0  0  0  0  0  0  0  0  0  0
   -2.6610   -3.4168   -2.0245 C   0  0  0  0  0  0  0  0  0  0  0  0
   -1.3347   -3.8266   -1.8998 C   0  0  0  0  0  0  0  0  0  0  0  0
   -0.5092   -3.1192   -1.0520 C   0  0  0  0  0  0  0  0  0  0  0  0
    0.5232   -3.4080   -0.9125 H   0  0  0  0  0  0  0  0  0  0  0  0
   -0.9612   -4.6786   -2.4441 H   0  0  0  0  0  0  0  0  0  0  0  0
   -4.1056   -1.9945   -1.3841 H   0  0  0  0  0  0  0  0  0  0  0  0
   -2.5441   -0.4546    0.2864 C   0  0  0  0  0  0  0  0  0  0  0  0
   -1.6048    0.0393    1.1233 N   0  0  0  0  0  0  0  0  0  0  0  0
   -1.8993    1.1212    1.8421 C   0  0  0  0  0  0  0  0  0  0  0  0
   -3.1096    1.7789    1.7701 C   0  0  0  0  0  0  0  0  0  0  0  0
   -4.0811    1.2932    0.8976 C   0  0  0  0  0  0  0  0  0  0  0  0
   -3.7904    0.1708    0.1538 C   0  0  0  0  0  0  0  0  0  0  0  0
   -4.5248   -0.2146   -0.5341 H   0  0  0  0  0  0  0  0  0  0  0  0
   -3.2939    2.6482    2.3807 H   0  0  0  0  0  0  0  0  0  0  0  0
   -1.1117    1.4677    2.4937 H   0  0  0  0  0  0  0  0  0  0  0  0
    0.4215   -0.8165    0.9133 Ir  0  0  0  0  0  0  0  0  0  0  0  0
    0.8726   -2.2303    1.5405 H   0  0  0  0  0  0  0  0  0  0  0  0
    0.3874    0.6316   -0.5893 B   0  0  0  0  0  0  0  0  0  0  0  0
   -0.2865    0.3663   -1.7694 O   0  0  0  0  0  0  0  0  0  0  0  0
   -0.3932    1.5604   -2.5517 C   0  0  0  0  0  0  0  0  0  0  0  0
   -0.1856    1.2303   -4.0277 C   0  0  0  0  0  0  0  0  0  0  0  0
    0.7292    0.6644   -4.1693 H   0  0  0  0  0  0  0  0  0  0  0  0
   -0.1450    2.1453   -4.6130 H   0  0  0  0  0  0  0  0  0  0  0  0
   -1.0177    0.6249   -4.3796 H   0  0  0  0  0  0  0  0  0  0  0  0
   -1.8147    2.1053   -2.3500 C   0  0  0  0  0  0  0  0  0  0  0  0
   -1.9864    2.9890   -2.9574 H   0  0  0  0  0  0  0  0  0  0  0  0
   -2.5274    1.3340   -2.6356 H   0  0  0  0  0  0  0  0  0  0  0  0
   -1.9788    2.3429   -1.3008 H   0  0  0  0  0  0  0  0  0  0  0  0
    0.7007    2.4806   -1.9181 C   0  0  0  0  0  0  0  0  0  0  0  0
    0.8432    1.9303   -0.6015 O   0  0  0  0  0  0  0  0  0  0  0  0
    2.0632    2.3319   -2.6061 C   0  0  0  0  0  0  0  0  0  0  0  0
    2.3522    1.2837   -2.5992 H   0  0  0  0  0  0  0  0  0  0  0  0
    2.0412    2.7175   -3.6214 H   0  0  0  0  0  0  0  0  0  0  0  0
    2.8042    2.8834   -2.0321 H   0  0  0  0  0  0  0  0  0  0  0  0
    0.3300    3.9597   -1.8309 C   0  0  0  0  0  0  0  0  0  0  0  0
   -0.5299    4.1130   -1.1864 H   0  0  0  0  0  0  0  0  0  0  0  0
    1.1684    4.5128   -1.4143 H   0  0  0  0  0  0  0  0  0  0  0  0
    0.1133    4.3476   -2.8231 H   0  0  0  0  0  0  0  0  0  0  0  0
    1.5577    0.6431    1.8807 B   0  0  0  0  0  0  0  0  0  0  0  0
    2.9251    0.7852    1.8886 O   0  0  0  0  0  0  0  0  0  0  0  0
    3.2884    2.0454    2.4703 C   0  0  0  0  0  0  0  0  0  0  0  0
    4.5349    1.8760    3.3374 C   0  0  0  0  0  0  0  0  0  0  0  0
    4.4002    1.0790    4.0611 H   0  0  0  0  0  0  0  0  0  0  0  0
    5.3788    1.6186    2.7025 H   0  0  0  0  0  0  0  0  0  0  0  0
    4.7577    2.8051    3.8552 H   0  0  0  0  0  0  0  0  0  0  0  0
    3.5978    2.9892    1.3016 C   0  0  0  0  0  0  0  0  0  0  0  0
    3.8656    3.9826    1.6491 H   0  0  0  0  0  0  0  0  0  0  0  0
    4.4287    2.5766    0.7337 H   0  0  0  0  0  0  0  0  0  0  0  0
    2.7330    3.0319    0.6444 H   0  0  0  0  0  0  0  0  0  0  0  0
    1.9931    2.4511    3.2529 C   0  0  0  0  0  0  0  0  0  0  0  0
    0.9829    1.6461    2.6305 O   0  0  0  0  0  0  0  0  0  0  0  0
    1.6054    3.9244    3.1327 C   0  0  0  0  0  0  0  0  0  0  0  0
    1.3849    4.1790    2.1014 H   0  0  0  0  0  0  0  0  0  0  0  0
    0.7136    4.1067    3.7273 H   0  0  0  0  0  0  0  0  0  0  0  0
    2.4083    4.5555    3.5040 H   0  0  0  0  0  0  0  0  0  0  0  0
    2.0345    2.0597    4.7357 C   0  0  0  0  0  0  0  0  0  0  0  0
    2.2433    0.9982    4.8382 H   0  0  0  0  0  0  0  0  0  0  0  0
    2.7790    2.6395    5.2725 H   0  0  0  0  0  0  0  0  0  0  0  0
    1.0569    2.2493    5.1730 H   0  0  0  0  0  0  0  0  0  0  0  0
    2.2782   -1.3309    0.1741 B   0  0  0  0  0  0  0  0  0  0  0  0
    3.1241   -2.2854    0.6978 O   0  0  0  0  0  0  0  0  0  0  0  0
    4.4011   -2.2290    0.0489 C   0  0  0  0  0  0  0  0  0  0  0  0
    5.3408   -1.4823    1.0017 C   0  0  0  0  0  0  0  0  0  0  0  0
    4.9032   -0.5176    1.2419 H   0  0  0  0  0  0  0  0  0  0  0  0
    5.4192   -2.0526    1.9239 H   0  0  0  0  0  0  0  0  0  0  0  0
    6.3311   -1.3616    0.5735 H   0  0  0  0  0  0  0  0  0  0  0  0
    4.9250   -3.6480   -0.1714 C   0  0  0  0  0  0  0  0  0  0  0  0
    5.0875   -4.1146    0.7965 H   0  0  0  0  0  0  0  0  0  0  0  0
    5.8670   -3.6183   -0.7118 H   0  0  0  0  0  0  0  0  0  0  0  0
    4.2110   -4.2529   -0.7203 H   0  0  0  0  0  0  0  0  0  0  0  0
    4.0901   -1.4246   -1.2627 C   0  0  0  0  0  0  0  0  0  0  0  0
    2.8381   -0.7910   -0.9610 O   0  0  0  0  0  0  0  0  0  0  0  0
    5.1197   -0.3522   -1.6156 C   0  0  0  0  0  0  0  0  0  0  0  0
    6.1015   -0.7985   -1.7468 H   0  0  0  0  0  0  0  0  0  0  0  0
    4.8260    0.1311   -2.5441 H   0  0  0  0  0  0  0  0  0  0  0  0
    5.1579    0.4034   -0.8387 H   0  0  0  0  0  0  0  0  0  0  0  0
    3.8612   -2.3220   -2.4868 C   0  0  0  0  0  0  0  0  0  0  0  0
    3.0987   -3.0654   -2.2710 H   0  0  0  0  0  0  0  0  0  0  0  0
    3.5032   -1.7047   -3.3073 H   0  0  0  0  0  0  0  0  0  0  0  0
    4.7809   -2.8135   -2.7890 H   0  0  0  0  0  0  0  0  0  0  0  0
   -3.3455   -3.9479   -2.6683 H   0  0  0  0  0  0  0  0  0  0  0  0
   -5.0380    1.7841    0.8034 H   0  0  0  0  0  0  0  0  0  0  0  0
    0.2359   -1.6814    2.9603 C   0  0  0  0  0  0  0  0  0  0  0  0
   -1.0244   -2.0801    3.3806 C   0  0  0  0  0  0  0  0  0  0  0  0
    1.2461   -1.5339    3.9275 C   0  0  0  0  0  0  0  0  0  0  0  0
   -1.2493   -2.2287    4.7513 C   0  0  0  0  0  0  0  0  0  0  0  0
   -1.8205   -2.2845    2.6761 H   0  0  0  0  0  0  0  0  0  0  0  0
    1.0787   -1.6697    5.2316 N   0  0  0  0  0  0  0  0  0  0  0  0
    2.2552   -1.3060    3.6123 H   0  0  0  0  0  0  0  0  0  0  0  0
   -0.1496   -1.9975    5.6179 C   0  0  0  0  0  0  0  0  0  0  0  0
   -2.3495   -2.6070    5.5818 C   0  0  0  0  0  0  0  0  0  0  0  0
   -0.5618   -2.2149    6.8937 N   0  0  0  0  0  0  0  0  0  0  0  0
   -1.8816   -2.5836    6.8658 C   0  0  0  0  0  0  0  0  0  0  0  0
   -3.7337   -2.9574    5.1325 C   0  0  0  0  0  0  0  0  0  0  0  0
    0.0167   -2.1325    7.7121 H   0  0  0  0  0  0  0  0  0  0  0  0
   -2.3997   -2.8099    7.7777 H   0  0  0  0  0  0  0  0  0  0  0  0
   -4.7939   -2.0555    5.7665 C   0  0  0  0  0  0  0  0  0  0  0  0
   -3.9508   -3.9983    5.3919 H   0  0  0  0  0  0  0  0  0  0  0  0
   -3.7834   -2.8696    4.0456 H   0  0  0  0  0  0  0  0  0  0  0  0
   -4.7944   -2.1709    6.8473 H   0  0  0  0  0  0  0  0  0  0  0  0
   -5.7822   -2.3116    5.3907 H   0  0  0  0  0  0  0  0  0  0  0  0
   -4.5929   -1.0125    5.5335 H   0  0  0  0  0  0  0  0  0  0  0  0
  1  2  4  0  0  0  0
  2  3  4  0  0  0  0
  3  4  4  0  0  0  0
  4  5  4  0  0  0  0
  1  6  4  0  0  0  0
  5  6  4  0  0  0  0
  6  7  1  0  0  0  0
  5  8  1  0  0  0  0
  3  9  1  0  0  0  0
  2 10  1  0  0  0  0
 10 11  4  0  0  0  0
 11 12  4  0  0  0  0
 12 13  4  0  0  0  0
 13 14  4  0  0  0  0
 10 15  4  0  0  0  0
 14 15  4  0  0  0  0
 15 16  1  0  0  0  0
 13 17  1  0  0  0  0
 12 18  1  0  0  0  0
  1 19  1  0  0  0  0
 11 19  1  0  0  0  0
 19 20  1  0  0  0  0
 19 21  1  0  0  0  0
 21 22  1  0  0  0  0
 22 23  1  0  0  0  0
 23 24  1  0  0  0  0
 24 25  1  0  0  0  0
 24 26  1  0  0  0  0
 24 27  1  0  0  0  0
 23 28  1  0  0  0  0
 28 29  1  0  0  0  0
 28 30  1  0  0  0  0
 28 31  1  0  0  0  0
 23 32  1  0  0  0  0
 21 33  1  0  0  0  0
 32 33  1  0  0  0  0
 32 34  1  0  0  0  0
 34 35  1  0  0  0  0
 34 36  1  0  0  0  0
 34 37  1  0  0  0  0
 32 38  1  0  0  0  0
 38 39  1  0  0  0  0
 38 40  1  0  0  0  0
 38 41  1  0  0  0  0
 19 42  1  0  0  0  0
 42 43  1  0  0  0  0
 43 44  1  0  0  0  0
 44 45  1  0  0  0  0
 45 46  1  0  0  0  0
 45 47  1  0  0  0  0
 45 48  1  0  0  0  0
 44 49  1  0  0  0  0
 49 50  1  0  0  0  0
 49 51  1  0  0  0  0
 49 52  1  0  0  0  0
 44 53  1  0  0  0  0
 42 54  1  0  0  0  0
 53 54  1  0  0  0  0
 53 55  1  0  0  0  0
 55 56  1  0  0  0  0
 55 57  1  0  0  0  0
 55 58  1  0  0  0  0
 53 59  1  0  0  0  0
 59 60  1  0  0  0  0
 59 61  1  0  0  0  0
 59 62  1  0  0  0  0
 19 63  1  0  0  0  0
 63 64  1  0  0  0  0
 64 65  1  0  0  0  0
 65 66  1  0  0  0  0
 66 67  1  0  0  0  0
 66 68  1  0  0  0  0
 66 69  1  0  0  0  0
 65 70  1  0  0  0  0
 70 71  1  0  0  0  0
 70 72  1  0  0  0  0
 70 73  1  0  0  0  0
 65 74  1  0  0  0  0
 63 75  1  0  0  0  0
 74 75  1  0  0  0  0
 74 76  1  0  0  0  0
 76 77  1  0  0  0  0
 76 78  1  0  0  0  0
 76 79  1  0  0  0  0
 74 80  1  0  0  0  0
 80 81  1  0  0  0  0
 80 82  1  0  0  0  0
 80 83  1  0  0  0  0
  4 84  1  0  0  0  0
 14 85  1  0  0  0  0
 19 86  1  0  0  0  0
 20 86  1  0  0  0  0
 86 87  4  0  0  0  0
 86 88  4  0  0  0  0
 87 89  4  0  0  0  0
 87 90  1  0  0  0  0
 88 91  4  0  0  0  0
 88 92  1  0  0  0  0
 89 93  4  0  0  0  0
 91 93  4  0  0  0  0
 89 94  4  0  0  0  0
 93 95  1  0  0  0  0
 94 96  2  0  0  0  0
 95 96  1  0  0  0  0
 94 97  1  0  0  0  0
 95 98  1  0  0  0  0
 96 99  1  0  0  0  0
 97100  1  0  0  0  0
 97101  1  0  0  0  0
 97102  1  0  0  0  0
100103  1  0  0  0  0
100104  1  0  0  0  0
100105  1  0  0  0  0
M  END
