
  xtb     01142215283D
 xtb: 6.4.1 (1a32961)
 96103  0     0  0            999 V2000
   -0.9905   -2.0185   -0.3169 N   0  0  0  0  0  0  0  0  0  0  0  0
   -2.2176   -1.4962   -0.4931 C   0  0  0  0  0  0  0  0  0  0  0  0
   -3.1117   -2.0554   -1.4141 C   0  0  0  0  0  0  0  0  0  0  0  0
   -2.7321   -3.1510   -2.1593 C   0  0  0  0  0  0  0  0  0  0  0  0
   -1.4574   -3.6768   -1.9696 C   0  0  0  0  0  0  0  0  0  0  0  0
   -0.6339   -3.0757   -1.0398 C   0  0  0  0  0  0  0  0  0  0  0  0
    0.3616   -3.4528   -0.8527 H   0  0  0  0  0  0  0  0  0  0  0  0
   -1.1178   -4.5325   -2.5299 H   0  0  0  0  0  0  0  0  0  0  0  0
   -4.0951   -1.6369   -1.5498 H   0  0  0  0  0  0  0  0  0  0  0  0
   -2.5433   -0.3245    0.3148 C   0  0  0  0  0  0  0  0  0  0  0  0
   -1.5787    0.1206    1.1460 N   0  0  0  0  0  0  0  0  0  0  0  0
   -1.8285    1.1829    1.9068 C   0  0  0  0  0  0  0  0  0  0  0  0
   -3.0272    1.8677    1.8871 C   0  0  0  0  0  0  0  0  0  0  0  0
   -4.0275    1.4307    1.0241 C   0  0  0  0  0  0  0  0  0  0  0  0
   -3.7794    0.3277    0.2344 C   0  0  0  0  0  0  0  0  0  0  0  0
   -4.5430   -0.0233   -0.4393 H   0  0  0  0  0  0  0  0  0  0  0  0
   -3.1790    2.7185    2.5313 H   0  0  0  0  0  0  0  0  0  0  0  0
   -1.0184    1.4873    2.5517 H   0  0  0  0  0  0  0  0  0  0  0  0
    0.4215   -0.8165    0.9133 Ir  0  0  0  0  0  0  0  0  0  0  0  0
    0.8726   -2.2303    1.5405 H   0  0  0  0  0  0  0  0  0  0  0  0
    0.4001    0.5518   -0.6508 B   0  0  0  0  0  0  0  0  0  0  0  0
   -0.1063    0.1816   -1.8808 O   0  0  0  0  0  0  0  0  0  0  0  0
   -0.2148    1.3291   -2.7317 C   0  0  0  0  0  0  0  0  0  0  0  0
    0.2108    0.9558   -4.1491 C   0  0  0  0  0  0  0  0  0  0  0  0
    1.1798    0.4681   -4.1399 H   0  0  0  0  0  0  0  0  0  0  0  0
    0.2519    1.8434   -4.7751 H   0  0  0  0  0  0  0  0  0  0  0  0
   -0.5143    0.2626   -4.5685 H   0  0  0  0  0  0  0  0  0  0  0  0
   -1.6926    1.7457   -2.7372 C   0  0  0  0  0  0  0  0  0  0  0  0
   -1.8615    2.5840   -3.4064 H   0  0  0  0  0  0  0  0  0  0  0  0
   -2.2906    0.8994   -3.0693 H   0  0  0  0  0  0  0  0  0  0  0  0
   -2.0108    2.0091   -1.7303 H   0  0  0  0  0  0  0  0  0  0  0  0
    0.7058    2.3704   -2.0148 C   0  0  0  0  0  0  0  0  0  0  0  0
    0.7229    1.8894   -0.6626 O   0  0  0  0  0  0  0  0  0  0  0  0
    2.1526    2.3146   -2.5196 C   0  0  0  0  0  0  0  0  0  0  0  0
    2.5274    1.3003   -2.4053 H   0  0  0  0  0  0  0  0  0  0  0  0
    2.2250    2.6392   -3.5535 H   0  0  0  0  0  0  0  0  0  0  0  0
    2.7635    2.9660   -1.8997 H   0  0  0  0  0  0  0  0  0  0  0  0
    0.2045    3.8123   -2.0521 C   0  0  0  0  0  0  0  0  0  0  0  0
   -0.7479    3.9136   -1.5414 H   0  0  0  0  0  0  0  0  0  0  0  0
    0.9269    4.4527   -1.5520 H   0  0  0  0  0  0  0  0  0  0  0  0
    0.0998    4.1415   -3.0827 H   0  0  0  0  0  0  0  0  0  0  0  0
    1.6237    0.6335    1.8279 B   0  0  0  0  0  0  0  0  0  0  0  0
    2.9442    0.9285    1.6275 O   0  0  0  0  0  0  0  0  0  0  0  0
    3.2928    2.1519    2.2907 C   0  0  0  0  0  0  0  0  0  0  0  0
    4.6611    2.0013    2.9551 C   0  0  0  0  0  0  0  0  0  0  0  0
    4.6906    1.1186    3.5855 H   0  0  0  0  0  0  0  0  0  0  0  0
    5.4198    1.8911    2.1844 H   0  0  0  0  0  0  0  0  0  0  0  0
    4.8903    2.8829    3.5472 H   0  0  0  0  0  0  0  0  0  0  0  0
    3.3696    3.2289    1.2023 C   0  0  0  0  0  0  0  0  0  0  0  0
    3.6051    4.2029    1.6205 H   0  0  0  0  0  0  0  0  0  0  0  0
    4.1470    2.9477    0.4957 H   0  0  0  0  0  0  0  0  0  0  0  0
    2.4254    3.2598    0.6650 H   0  0  0  0  0  0  0  0  0  0  0  0
    2.0974    2.3664    3.2848 C   0  0  0  0  0  0  0  0  0  0  0  0
    1.0869    1.4910    2.7641 O   0  0  0  0  0  0  0  0  0  0  0  0
    1.5443    3.7908    3.3291 C   0  0  0  0  0  0  0  0  0  0  0  0
    1.1534    4.0827    2.3601 H   0  0  0  0  0  0  0  0  0  0  0  0
    0.7328    3.8320    4.0518 H   0  0  0  0  0  0  0  0  0  0  0  0
    2.3208    4.4859    3.6359 H   0  0  0  0  0  0  0  0  0  0  0  0
    2.4058    1.9073    4.7152 C   0  0  0  0  0  0  0  0  0  0  0  0
    2.7777    0.8879    4.7089 H   0  0  0  0  0  0  0  0  0  0  0  0
    3.1346    2.5607    5.1849 H   0  0  0  0  0  0  0  0  0  0  0  0
    1.4851    1.9286    5.2938 H   0  0  0  0  0  0  0  0  0  0  0  0
    2.2782   -1.3309    0.1741 B   0  0  0  0  0  0  0  0  0  0  0  0
    3.0619   -2.3472    0.6763 O   0  0  0  0  0  0  0  0  0  0  0  0
    4.3742   -2.2885    0.1030 C   0  0  0  0  0  0  0  0  0  0  0  0
    5.2710   -1.6151    1.1469 C   0  0  0  0  0  0  0  0  0  0  0  0
    4.8537   -0.6432    1.3932 H   0  0  0  0  0  0  0  0  0  0  0  0
    5.2575   -2.2192    2.0505 H   0  0  0  0  0  0  0  0  0  0  0  0
    6.2934   -1.5192    0.7953 H   0  0  0  0  0  0  0  0  0  0  0  0
    4.8775   -3.7066   -0.1640 C   0  0  0  0  0  0  0  0  0  0  0  0
    4.9731   -4.2266    0.7856 H   0  0  0  0  0  0  0  0  0  0  0  0
    5.8498   -3.6732   -0.6472 H   0  0  0  0  0  0  0  0  0  0  0  0
    4.1829   -4.2632   -0.7843 H   0  0  0  0  0  0  0  0  0  0  0  0
    4.1530   -1.4063   -1.1759 C   0  0  0  0  0  0  0  0  0  0  0  0
    2.9042   -0.7514   -0.9020 O   0  0  0  0  0  0  0  0  0  0  0  0
    5.2275   -0.3473   -1.4150 C   0  0  0  0  0  0  0  0  0  0  0  0
    6.2042   -0.8134   -1.5092 H   0  0  0  0  0  0  0  0  0  0  0  0
    5.0023    0.1878   -2.3341 H   0  0  0  0  0  0  0  0  0  0  0  0
    5.2348    0.3669   -0.5992 H   0  0  0  0  0  0  0  0  0  0  0  0
    3.9614   -2.2302   -2.4562 C   0  0  0  0  0  0  0  0  0  0  0  0
    3.1669   -2.9583   -2.3185 H   0  0  0  0  0  0  0  0  0  0  0  0
    3.6656   -1.5593   -3.2590 H   0  0  0  0  0  0  0  0  0  0  0  0
    4.8811   -2.7344   -2.7367 H   0  0  0  0  0  0  0  0  0  0  0  0
   -3.4109   -3.5892   -2.8751 H   0  0  0  0  0  0  0  0  0  0  0  0
   -4.9777    1.9404    0.9725 H   0  0  0  0  0  0  0  0  0  0  0  0
    0.2359   -1.6814    2.9603 C   0  0  0  0  0  0  0  0  0  0  0  0
   -1.0656   -2.0142    3.3378 C   0  0  0  0  0  0  0  0  0  0  0  0
    1.1646   -1.5991    3.9924 C   0  0  0  0  0  0  0  0  0  0  0  0
   -1.4083   -2.1491    4.6723 C   0  0  0  0  0  0  0  0  0  0  0  0
   -1.8282   -2.1690    2.5901 H   0  0  0  0  0  0  0  0  0  0  0  0
    2.4757   -1.3791    3.7043 F   0  0  0  0  0  0  0  0  0  0  0  0
    0.8381   -1.7422    5.3279 C   0  0  0  0  0  0  0  0  0  0  0  0
   -0.4741   -2.0082    5.6836 C   0  0  0  0  0  0  0  0  0  0  0  0
   -3.0580   -2.5155    5.0862 Cl  0  0  0  0  0  0  0  0  0  0  0  0
    1.6064   -1.6520    6.0798 H   0  0  0  0  0  0  0  0  0  0  0  0
   -0.7564   -2.1173    6.7176 H   0  0  0  0  0  0  0  0  0  0  0  0
  1  2  4  0  0  0  0
  2  3  4  0  0  0  0
  3  4  4  0  0  0  0
  4  5  4  0  0  0  0
  1  6  4  0  0  0  0
  5  6  4  0  0  0  0
  6  7  1  0  0  0  0
  5  8  1  0  0  0  0
  3  9  1  0  0  0  0
  2 10  1  0  0  0  0
 10 11  4  0  0  0  0
 11 12  4  0  0  0  0
 12 13  4  0  0  0  0
 13 14  4  0  0  0  0
 10 15  4  0  0  0  0
 14 15  4  0  0  0  0
 15 16  1  0  0  0  0
 13 17  1  0  0  0  0
 12 18  1  0  0  0  0
  1 19  1  0  0  0  0
 11 19  1  0  0  0  0
 19 20  1  0  0  0  0
 19 21  1  0  0  0  0
 21 22  1  0  0  0  0
 22 23  1  0  0  0  0
 23 24  1  0  0  0  0
 24 25  1  0  0  0  0
 24 26  1  0  0  0  0
 24 27  1  0  0  0  0
 23 28  1  0  0  0  0
 28 29  1  0  0  0  0
 28 30  1  0  0  0  0
 28 31  1  0  0  0  0
 23 32  1  0  0  0  0
 21 33  1  0  0  0  0
 32 33  1  0  0  0  0
 32 34  1  0  0  0  0
 34 35  1  0  0  0  0
 34 36  1  0  0  0  0
 34 37  1  0  0  0  0
 32 38  1  0  0  0  0
 38 39  1  0  0  0  0
 38 40  1  0  0  0  0
 38 41  1  0  0  0  0
 19 42  1  0  0  0  0
 42 43  1  0  0  0  0
 43 44  1  0  0  0  0
 44 45  1  0  0  0  0
 45 46  1  0  0  0  0
 45 47  1  0  0  0  0
 45 48  1  0  0  0  0
 44 49  1  0  0  0  0
 49 50  1  0  0  0  0
 49 51  1  0  0  0  0
 49 52  1  0  0  0  0
 44 53  1  0  0  0  0
 42 54  1  0  0  0  0
 53 54  1  0  0  0  0
 53 55  1  0  0  0  0
 55 56  1  0  0  0  0
 55 57  1  0  0  0  0
 55 58  1  0  0  0  0
 53 59  1  0  0  0  0
 59 60  1  0  0  0  0
 59 61  1  0  0  0  0
 59 62  1  0  0  0  0
 19 63  1  0  0  0  0
 63 64  1  0  0  0  0
 64 65  1  0  0  0  0
 65 66  1  0  0  0  0
 66 67  1  0  0  0  0
 66 68  1  0  0  0  0
 66 69  1  0  0  0  0
 65 70  1  0  0  0  0
 70 71  1  0  0  0  0
 70 72  1  0  0  0  0
 70 73  1  0  0  0  0
 65 74  1  0  0  0  0
 63 75  1  0  0  0  0
 74 75  1  0  0  0  0
 74 76  1  0  0  0  0
 76 77  1  0  0  0  0
 76 78  1  0  0  0  0
 76 79  1  0  0  0  0
 74 80  1  0  0  0  0
 80 81  1  0  0  0  0
 80 82  1  0  0  0  0
 80 83  1  0  0  0  0
  4 84  1  0  0  0  0
 14 85  1  0  0  0  0
 19 86  1  0  0  0  0
 20 86  1  0  0  0  0
 86 87  4  0  0  0  0
 86 88  4  0  0  0  0
 87 89  4  0  0  0  0
 87 90  1  0  0  0  0
 88 91  1  0  0  0  0
 88 92  4  0  0  0  0
 89 93  4  0  0  0  0
 92 93  4  0  0  0  0
 89 94  1  0  0  0  0
 92 95  1  0  0  0  0
 93 96  1  0  0  0  0
M  END
