   14

C          0.99295        1.20037       -0.01084
C          2.39598        1.21091       -0.00628
C          3.15831        2.51279       -0.01436
F          2.35501        3.61295       -0.03611
F          3.95656        2.65628        1.07924
F          3.97825        2.62946       -1.09511
C          3.08531       -0.01362        0.00647
C          2.38526       -1.22244        0.01058
C          0.99069       -1.22176        0.00321
C          0.30095       -0.01135       -0.00658
Br        -1.58940       -0.00736       -0.01227
H          0.44196        2.13905       -0.01915
H          4.17458       -0.02782        0.01275
H          2.92658       -2.16563        0.01937
