
  xtb     01142215053D
 xtb: 6.4.1 (1a32961)
 15 15  0     0  0            999 V2000
    0.2753   -1.1909   -0.0036 C   0  0  0  0  0  0  0  0  0  0  0  0
   -1.1076   -1.1956    0.0008 C   0  0  0  0  0  0  0  0  0  0  0  0
   -1.8067    0.0008    0.0043 C   0  0  0  0  0  0  0  0  0  0  0  0
   -1.1121    1.1979    0.0029 C   0  0  0  0  0  0  0  0  0  0  0  0
    0.2729    1.1987   -0.0017 C   0  0  0  0  0  0  0  0  0  0  0  0
    0.9844    0.0062   -0.0051 C   0  0  0  0  0  0  0  0  0  0  0  0
    2.4839   -0.0060   -0.0107 C   0  0  0  0  0  0  0  0  0  0  0  0
    0.8164   -2.1269   -0.0063 H   0  0  0  0  0  0  0  0  0  0  0  0
   -1.6430   -2.1344    0.0023 H   0  0  0  0  0  0  0  0  0  0  0  0
   -2.8870   -0.0012    0.0088 H   0  0  0  0  0  0  0  0  0  0  0  0
   -1.6499    2.1354    0.0061 H   0  0  0  0  0  0  0  0  0  0  0  0
    0.8068    2.1389   -0.0027 H   0  0  0  0  0  0  0  0  0  0  0  0
    2.8817    1.0055    0.0027 H   0  0  0  0  0  0  0  0  0  0  0  0
    2.8550   -0.5148   -0.8997 H   0  0  0  0  0  0  0  0  0  0  0  0
    2.8612   -0.5412    0.8598 H   0  0  0  0  0  0  0  0  0  0  0  0
  1  2  4  0  0  0  0
  2  3  4  0  0  0  0
  3  4  4  0  0  0  0
  4  5  4  0  0  0  0
  1  6  4  0  0  0  0
  5  6  4  0  0  0  0
  6  7  1  0  0  0  0
  1  8  1  0  0  0  0
  2  9  1  0  0  0  0
  3 10  1  0  0  0  0
  4 11  1  0  0  0  0
  5 12  1  0  0  0  0
  7 13  1  0  0  0  0
  7 14  1  0  0  0  0
  7 15  1  0  0  0  0
M  END
