17

N         -1.24957       -0.96014       -0.00372
C         -0.10307       -1.67333       -0.00433
C          1.16054       -1.10606       -0.00327
C          1.26546        0.28377       -0.00138
C          2.60179        0.96136       -0.00466
C          0.09047        1.04161        0.00045
C         -1.14045        0.38926       -0.00172
C         -2.42361        1.16358       -0.00744
H         -0.23114       -2.75177       -0.00640
H          2.03894       -1.74210       -0.00535
H          3.42003        0.23358       -0.00421
H          2.71024        1.58864        0.88589
H          2.70702        1.58358       -0.89917
H          0.13699        2.12644        0.00193
H         -2.24751        2.24375        0.00100
H         -3.01640        0.90744        0.87615
H         -3.00002        0.91866       -0.90497
