   20
Created with kallisto
C      2.1056    0.7106   -0.0018
C      0.9133    1.4594   -0.0031
C      2.1027   -0.6877   -0.0001
C     -0.2712    0.7058   -0.0013
C      0.9387    2.9564   -0.0073
C      0.8994   -1.4008    0.0006
H      3.0452   -1.2296    0.0003
C     -0.3046   -0.6842    0.0005
N     -1.5959    1.0671   -0.0010
H      1.9626    3.3435   -0.0067
H      0.4300    3.3427    0.8816
H      0.4334    3.3371   -0.9006
H      0.8867   -2.4846    0.0013
N     -1.5985   -1.1470    0.0016
C     -2.3595   -0.0733    0.0009
H     -1.9479    2.0126   -0.0016
C     -3.8400   -0.0326    0.0019
H     -4.2535   -1.0457    0.0027
H     -4.2119    0.4867   -0.8867
H     -4.2106    0.4874    0.8907
