
  xtb     10082107223D
 xtb: 6.4.0 (f63f532)
111119  0     0  0            999 V2000
   -0.8685   -1.9348   -0.4920 N   0  0  0  0  0  0  0  0  0  0  0  0
   -2.1144   -1.4459   -0.6506 C   0  0  0  0  0  0  0  0  0  0  0  0
   -2.9286   -1.8769   -1.7055 C   0  0  0  0  0  0  0  0  0  0  0  0
   -2.4605   -2.8203   -2.5929 C   0  0  0  0  0  0  0  0  0  0  0  0
   -1.1751   -3.3254   -2.4105 C   0  0  0  0  0  0  0  0  0  0  0  0
   -0.4284   -2.8485   -1.3544 C   0  0  0  0  0  0  0  0  0  0  0  0
    0.5746   -3.2093   -1.1758 H   0  0  0  0  0  0  0  0  0  0  0  0
   -0.7689   -4.0681   -3.0777 H   0  0  0  0  0  0  0  0  0  0  0  0
   -3.9161   -1.4665   -1.8386 H   0  0  0  0  0  0  0  0  0  0  0  0
   -2.5409   -0.4418    0.3149 C   0  0  0  0  0  0  0  0  0  0  0  0
   -1.6056   -0.0093    1.1879 N   0  0  0  0  0  0  0  0  0  0  0  0
   -1.9475    0.9141    2.0840 C   0  0  0  0  0  0  0  0  0  0  0  0
   -3.2133    1.4547    2.1771 C   0  0  0  0  0  0  0  0  0  0  0  0
   -4.1911    1.0149    1.2879 C   0  0  0  0  0  0  0  0  0  0  0  0
   -3.8468    0.0639    0.3524 C   0  0  0  0  0  0  0  0  0  0  0  0
   -4.5914   -0.2947   -0.3388 H   0  0  0  0  0  0  0  0  0  0  0  0
   -3.4348    2.1942    2.9295 H   0  0  0  0  0  0  0  0  0  0  0  0
   -1.1549    1.2286    2.7456 H   0  0  0  0  0  0  0  0  0  0  0  0
    0.4215   -0.8165    0.9133 Ir  0  0  0  0  0  0  0  0  0  0  0  0
    0.8726   -2.2303    1.5405 H   0  0  0  0  0  0  0  0  0  0  0  0
    0.4195    0.7096   -0.5194 B   0  0  0  0  0  0  0  0  0  0  0  0
   -0.3491    0.5978   -1.6673 O   0  0  0  0  0  0  0  0  0  0  0  0
   -0.4334    1.8681   -2.3226 C   0  0  0  0  0  0  0  0  0  0  0  0
   -0.3750    1.6769   -3.8360 C   0  0  0  0  0  0  0  0  0  0  0  0
    0.4876    1.0825   -4.1181 H   0  0  0  0  0  0  0  0  0  0  0  0
   -0.3308    2.6432   -4.3320 H   0  0  0  0  0  0  0  0  0  0  0  0
   -1.2703    1.1541   -4.1641 H   0  0  0  0  0  0  0  0  0  0  0  0
   -1.7910    2.4769   -1.9420 C   0  0  0  0  0  0  0  0  0  0  0  0
   -1.9489    3.4289   -2.4400 H   0  0  0  0  0  0  0  0  0  0  0  0
   -2.5779    1.7860   -2.2389 H   0  0  0  0  0  0  0  0  0  0  0  0
   -1.8504    2.6112   -0.8637 H   0  0  0  0  0  0  0  0  0  0  0  0
    0.7719    2.6496   -1.7054 C   0  0  0  0  0  0  0  0  0  0  0  0
    0.9794    1.9641   -0.4635 O   0  0  0  0  0  0  0  0  0  0  0  0
    2.0599    2.4848   -2.5211 C   0  0  0  0  0  0  0  0  0  0  0  0
    2.2715    1.4255   -2.6454 H   0  0  0  0  0  0  0  0  0  0  0  0
    1.9836    2.9756   -3.4870 H   0  0  0  0  0  0  0  0  0  0  0  0
    2.8831    2.9238   -1.9624 H   0  0  0  0  0  0  0  0  0  0  0  0
    0.5170    4.1331   -1.4455 C   0  0  0  0  0  0  0  0  0  0  0  0
   -0.2691    4.2736   -0.7099 H   0  0  0  0  0  0  0  0  0  0  0  0
    1.4265    4.5882   -1.0603 H   0  0  0  0  0  0  0  0  0  0  0  0
    0.2417    4.6319   -2.3712 H   0  0  0  0  0  0  0  0  0  0  0  0
    1.5392    0.6211    1.9356 B   0  0  0  0  0  0  0  0  0  0  0  0
    2.9033    0.7415    2.0055 O   0  0  0  0  0  0  0  0  0  0  0  0
    3.2636    1.9760    2.6430 C   0  0  0  0  0  0  0  0  0  0  0  0
    4.4427    1.7408    3.5861 C   0  0  0  0  0  0  0  0  0  0  0  0
    4.2279    0.9415    4.2874 H   0  0  0  0  0  0  0  0  0  0  0  0
    5.3131    1.4531    3.0019 H   0  0  0  0  0  0  0  0  0  0  0  0
    4.6725    2.6523    4.1312 H   0  0  0  0  0  0  0  0  0  0  0  0
    3.6859    2.9350    1.5233 C   0  0  0  0  0  0  0  0  0  0  0  0
    3.9476    3.9142    1.9129 H   0  0  0  0  0  0  0  0  0  0  0  0
    4.5509    2.5142    1.0156 H   0  0  0  0  0  0  0  0  0  0  0  0
    2.8778    3.0123    0.8007 H   0  0  0  0  0  0  0  0  0  0  0  0
    1.9307    2.4064    3.3493 C   0  0  0  0  0  0  0  0  0  0  0  0
    0.9417    1.6188    2.6721 O   0  0  0  0  0  0  0  0  0  0  0  0
    1.5755    3.8855    3.2014 C   0  0  0  0  0  0  0  0  0  0  0  0
    1.4308    4.1403    2.1568 H   0  0  0  0  0  0  0  0  0  0  0  0
    0.6471    4.0826    3.7321 H   0  0  0  0  0  0  0  0  0  0  0  0
    2.3599    4.5053    3.6270 H   0  0  0  0  0  0  0  0  0  0  0  0
    1.8767    2.0210    4.8333 C   0  0  0  0  0  0  0  0  0  0  0  0
    2.0523    0.9552    4.9527 H   0  0  0  0  0  0  0  0  0  0  0  0
    2.6039    2.5839    5.4101 H   0  0  0  0  0  0  0  0  0  0  0  0
    0.8814    2.2385    5.2146 H   0  0  0  0  0  0  0  0  0  0  0  0
    2.2782   -1.3309    0.1741 B   0  0  0  0  0  0  0  0  0  0  0  0
    3.1536   -2.2354    0.7334 O   0  0  0  0  0  0  0  0  0  0  0  0
    4.4265   -2.1717    0.0774 C   0  0  0  0  0  0  0  0  0  0  0  0
    5.3540   -1.3770    1.0029 C   0  0  0  0  0  0  0  0  0  0  0  0
    4.8934   -0.4185    1.2231 H   0  0  0  0  0  0  0  0  0  0  0  0
    5.4540   -1.9212    1.9387 H   0  0  0  0  0  0  0  0  0  0  0  0
    6.3376   -1.2420    0.5638 H   0  0  0  0  0  0  0  0  0  0  0  0
    4.9796   -3.5862   -0.0978 C   0  0  0  0  0  0  0  0  0  0  0  0
    5.1507   -4.0177    0.8848 H   0  0  0  0  0  0  0  0  0  0  0  0
    5.9213   -3.5549   -0.6385 H   0  0  0  0  0  0  0  0  0  0  0  0
    4.2787   -4.2237   -0.6262 H   0  0  0  0  0  0  0  0  0  0  0  0
    4.0944   -1.4176   -1.2599 C   0  0  0  0  0  0  0  0  0  0  0  0
    2.8158   -0.8242   -0.9868 O   0  0  0  0  0  0  0  0  0  0  0  0
    5.0815   -0.3126   -1.6339 C   0  0  0  0  0  0  0  0  0  0  0  0
    6.0828   -0.7192   -1.7451 H   0  0  0  0  0  0  0  0  0  0  0  0
    4.7759    0.1319   -2.5777 H   0  0  0  0  0  0  0  0  0  0  0  0
    5.0799    0.4652   -0.8782 H   0  0  0  0  0  0  0  0  0  0  0  0
    3.9154   -2.3557   -2.4612 C   0  0  0  0  0  0  0  0  0  0  0  0
    3.1846   -3.1266   -2.2332 H   0  0  0  0  0  0  0  0  0  0  0  0
    3.5409   -1.7764   -3.3017 H   0  0  0  0  0  0  0  0  0  0  0  0
    4.8588   -2.8149   -2.7406 H   0  0  0  0  0  0  0  0  0  0  0  0
   -3.0760   -3.1573   -3.4131 H   0  0  0  0  0  0  0  0  0  0  0  0
   -5.1959    1.4070    1.3304 H   0  0  0  0  0  0  0  0  0  0  0  0
    0.2359   -1.6814    2.9603 C   0  0  0  0  0  0  0  0  0  0  0  0
   -1.0176   -2.1171    3.3876 C   0  0  0  0  0  0  0  0  0  0  0  0
    1.2202   -1.5979    3.9482 C   0  0  0  0  0  0  0  0  0  0  0  0
   -1.2395   -2.3821    4.7307 C   0  0  0  0  0  0  0  0  0  0  0  0
   -1.8245   -2.2726    2.6833 H   0  0  0  0  0  0  0  0  0  0  0  0
    1.0201   -1.8602    5.2269 N   0  0  0  0  0  0  0  0  0  0  0  0
    2.2330   -1.3248    3.6812 H   0  0  0  0  0  0  0  0  0  0  0  0
   -0.1874   -2.2519    5.6283 C   0  0  0  0  0  0  0  0  0  0  0  0
   -2.2094   -2.7160    5.0723 H   0  0  0  0  0  0  0  0  0  0  0  0
   -0.3106   -2.6539    7.0691 C   0  0  0  0  0  0  0  0  0  0  0  0
    0.1347   -4.1224    7.2212 C   0  0  0  0  0  0  0  0  0  0  0  0
   -1.3402   -2.5451    7.4132 H   0  0  0  0  0  0  0  0  0  0  0  0
    0.3386   -2.0226    7.6759 H   0  0  0  0  0  0  0  0  0  0  0  0
    0.1198   -4.5559    8.6579 C   0  0  0  0  0  0  0  0  0  0  0  0
    1.1436   -4.2121    6.8145 H   0  0  0  0  0  0  0  0  0  0  0  0
   -0.5305   -4.7563    6.6310 H   0  0  0  0  0  0  0  0  0  0  0  0
   -0.9843   -5.2035    9.1979 C   0  0  0  0  0  0  0  0  0  0  0  0
    1.2097   -4.2970    9.4812 C   0  0  0  0  0  0  0  0  0  0  0  0
   -0.9982   -5.5891   10.5275 C   0  0  0  0  0  0  0  0  0  0  0  0
   -1.8383   -5.4144    8.5693 H   0  0  0  0  0  0  0  0  0  0  0  0
    1.1990   -4.6806   10.8103 C   0  0  0  0  0  0  0  0  0  0  0  0
    2.0746   -3.7959    9.0705 H   0  0  0  0  0  0  0  0  0  0  0  0
    0.0940   -5.3287   11.3377 C   0  0  0  0  0  0  0  0  0  0  0  0
   -1.8623   -6.0970   10.9318 H   0  0  0  0  0  0  0  0  0  0  0  0
    2.0556   -4.4766   11.4367 H   0  0  0  0  0  0  0  0  0  0  0  0
    0.0855   -5.6324   12.3743 H   0  0  0  0  0  0  0  0  0  0  0  0
  1  2  4  0  0  0  0
  2  3  4  0  0  0  0
  3  4  4  0  0  0  0
  4  5  4  0  0  0  0
  1  6  4  0  0  0  0
  5  6  4  0  0  0  0
  6  7  1  0  0  0  0
  5  8  1  0  0  0  0
  3  9  1  0  0  0  0
  2 10  1  0  0  0  0
 10 11  4  0  0  0  0
 11 12  4  0  0  0  0
 12 13  4  0  0  0  0
 13 14  4  0  0  0  0
 10 15  4  0  0  0  0
 14 15  4  0  0  0  0
 15 16  1  0  0  0  0
 13 17  1  0  0  0  0
 12 18  1  0  0  0  0
  1 19  1  0  0  0  0
 11 19  1  0  0  0  0
 19 20  1  0  0  0  0
 19 21  1  0  0  0  0
 21 22  1  0  0  0  0
 22 23  1  0  0  0  0
 23 24  1  0  0  0  0
 24 25  1  0  0  0  0
 24 26  1  0  0  0  0
 24 27  1  0  0  0  0
 23 28  1  0  0  0  0
 28 29  1  0  0  0  0
 28 30  1  0  0  0  0
 28 31  1  0  0  0  0
 23 32  1  0  0  0  0
 21 33  1  0  0  0  0
 32 33  1  0  0  0  0
 32 34  1  0  0  0  0
 34 35  1  0  0  0  0
 34 36  1  0  0  0  0
 34 37  1  0  0  0  0
 32 38  1  0  0  0  0
 38 39  1  0  0  0  0
 38 40  1  0  0  0  0
 38 41  1  0  0  0  0
 19 42  1  0  0  0  0
 42 43  1  0  0  0  0
 43 44  1  0  0  0  0
 44 45  1  0  0  0  0
 45 46  1  0  0  0  0
 45 47  1  0  0  0  0
 45 48  1  0  0  0  0
 44 49  1  0  0  0  0
 49 50  1  0  0  0  0
 49 51  1  0  0  0  0
 49 52  1  0  0  0  0
 44 53  1  0  0  0  0
 42 54  1  0  0  0  0
 53 54  1  0  0  0  0
 53 55  1  0  0  0  0
 55 56  1  0  0  0  0
 55 57  1  0  0  0  0
 55 58  1  0  0  0  0
 53 59  1  0  0  0  0
 59 60  1  0  0  0  0
 59 61  1  0  0  0  0
 59 62  1  0  0  0  0
 19 63  1  0  0  0  0
 63 64  1  0  0  0  0
 64 65  1  0  0  0  0
 65 66  1  0  0  0  0
 66 67  1  0  0  0  0
 66 68  1  0  0  0  0
 66 69  1  0  0  0  0
 65 70  1  0  0  0  0
 70 71  1  0  0  0  0
 70 72  1  0  0  0  0
 70 73  1  0  0  0  0
 65 74  1  0  0  0  0
 63 75  1  0  0  0  0
 74 75  1  0  0  0  0
 74 76  1  0  0  0  0
 76 77  1  0  0  0  0
 76 78  1  0  0  0  0
 76 79  1  0  0  0  0
 74 80  1  0  0  0  0
 80 81  1  0  0  0  0
 80 82  1  0  0  0  0
 80 83  1  0  0  0  0
  4 84  1  0  0  0  0
 14 85  1  0  0  0  0
 19 86  1  0  0  0  0
 20 86  1  0  0  0  0
 86 87  4  0  0  0  0
 86 88  4  0  0  0  0
 87 89  4  0  0  0  0
 87 90  1  0  0  0  0
 88 91  4  0  0  0  0
 88 92  1  0  0  0  0
 89 93  4  0  0  0  0
 91 93  4  0  0  0  0
 89 94  1  0  0  0  0
 93 95  1  0  0  0  0
 95 96  1  0  0  0  0
 95 97  1  0  0  0  0
 95 98  1  0  0  0  0
 96 99  1  0  0  0  0
 96100  1  0  0  0  0
 96101  1  0  0  0  0
 99102  4  0  0  0  0
 99103  4  0  0  0  0
102104  4  0  0  0  0
102105  1  0  0  0  0
103106  4  0  0  0  0
103107  1  0  0  0  0
104108  4  0  0  0  0
106108  4  0  0  0  0
104109  1  0  0  0  0
106110  1  0  0  0  0
108111  1  0  0  0  0
M  END
