    8
Created with kallisto
C      1.0061   -0.7798    0.0060
C     -0.3359   -1.0812   -0.0039
C      1.0924    0.6335    0.0057
O     -1.0776    0.0566   -0.0101
H     -0.8975   -2.0049   -0.0082
C     -0.2031    1.0959   -0.0050
H      1.9861    1.2412    0.0118
H     -0.6482    2.0810   -0.0103
