
  xtb     01142215183D
 xtb: 6.4.1 (1a32961)
107115  0     0  0            999 V2000
   -0.9430   -2.0169   -0.3631 N   0  0  0  0  0  0  0  0  0  0  0  0
   -2.2114   -1.5797   -0.4621 C   0  0  0  0  0  0  0  0  0  0  0  0
   -3.1293   -2.2222   -1.3031 C   0  0  0  0  0  0  0  0  0  0  0  0
   -2.7287   -3.3041   -2.0568 C   0  0  0  0  0  0  0  0  0  0  0  0
   -1.4083   -3.7336   -1.9563 C   0  0  0  0  0  0  0  0  0  0  0  0
   -0.5654   -3.0593   -1.0969 C   0  0  0  0  0  0  0  0  0  0  0  0
    0.4651   -3.3621   -0.9785 H   0  0  0  0  0  0  0  0  0  0  0  0
   -1.0501   -4.5740   -2.5280 H   0  0  0  0  0  0  0  0  0  0  0  0
   -4.1493   -1.8813   -1.3659 H   0  0  0  0  0  0  0  0  0  0  0  0
   -2.5612   -0.4130    0.3414 C   0  0  0  0  0  0  0  0  0  0  0  0
   -1.6004    0.0689    1.1565 N   0  0  0  0  0  0  0  0  0  0  0  0
   -1.8740    1.1310    1.9105 C   0  0  0  0  0  0  0  0  0  0  0  0
   -3.0936    1.7773    1.9008 C   0  0  0  0  0  0  0  0  0  0  0  0
   -4.0910    1.3018    1.0541 C   0  0  0  0  0  0  0  0  0  0  0  0
   -3.8174    0.2015    0.2700 C   0  0  0  0  0  0  0  0  0  0  0  0
   -4.5754   -0.1747   -0.3964 H   0  0  0  0  0  0  0  0  0  0  0  0
   -3.2631    2.6283    2.5405 H   0  0  0  0  0  0  0  0  0  0  0  0
   -1.0654    1.4687    2.5403 H   0  0  0  0  0  0  0  0  0  0  0  0
    0.4215   -0.8165    0.9133 Ir  0  0  0  0  0  0  0  0  0  0  0  0
    0.8726   -2.2303    1.5405 H   0  0  0  0  0  0  0  0  0  0  0  0
    0.3466    0.6609   -0.5588 B   0  0  0  0  0  0  0  0  0  0  0  0
   -0.3279    0.4129   -1.7391 O   0  0  0  0  0  0  0  0  0  0  0  0
   -0.4807    1.6299   -2.4795 C   0  0  0  0  0  0  0  0  0  0  0  0
   -0.2739    1.3584   -3.9672 C   0  0  0  0  0  0  0  0  0  0  0  0
    0.6570    0.8272   -4.1351 H   0  0  0  0  0  0  0  0  0  0  0  0
   -0.2662    2.2946   -4.5192 H   0  0  0  0  0  0  0  0  0  0  0  0
   -1.0894    0.7407   -4.3355 H   0  0  0  0  0  0  0  0  0  0  0  0
   -1.9180    2.1187   -2.2494 C   0  0  0  0  0  0  0  0  0  0  0  0
   -2.1252    3.0134   -2.8287 H   0  0  0  0  0  0  0  0  0  0  0  0
   -2.6060    1.3322   -2.5532 H   0  0  0  0  0  0  0  0  0  0  0  0
   -2.0814    2.3204   -1.1927 H   0  0  0  0  0  0  0  0  0  0  0  0
    0.5871    2.5641   -1.8216 C   0  0  0  0  0  0  0  0  0  0  0  0
    0.7596    1.9719   -0.5259 O   0  0  0  0  0  0  0  0  0  0  0  0
    1.9469    2.4869   -2.5257 C   0  0  0  0  0  0  0  0  0  0  0  0
    2.2719    1.4498   -2.5606 H   0  0  0  0  0  0  0  0  0  0  0  0
    1.9003    2.9072   -3.5261 H   0  0  0  0  0  0  0  0  0  0  0  0
    2.6750    3.0439   -1.9408 H   0  0  0  0  0  0  0  0  0  0  0  0
    0.1666    4.0252   -1.6776 C   0  0  0  0  0  0  0  0  0  0  0  0
   -0.6913    4.1260   -1.0201 H   0  0  0  0  0  0  0  0  0  0  0  0
    0.9896    4.5926   -1.2500 H   0  0  0  0  0  0  0  0  0  0  0  0
   -0.0740    4.4401   -2.6530 H   0  0  0  0  0  0  0  0  0  0  0  0
    1.5780    0.6353    1.8759 B   0  0  0  0  0  0  0  0  0  0  0  0
    2.9284    0.8520    1.7738 O   0  0  0  0  0  0  0  0  0  0  0  0
    3.2863    2.0883    2.4076 C   0  0  0  0  0  0  0  0  0  0  0  0
    4.5893    1.9072    3.1849 C   0  0  0  0  0  0  0  0  0  0  0  0
    4.5177    1.0773    3.8801 H   0  0  0  0  0  0  0  0  0  0  0  0
    5.3934    1.6954    2.4851 H   0  0  0  0  0  0  0  0  0  0  0  0
    4.8306    2.8161    3.7289 H   0  0  0  0  0  0  0  0  0  0  0  0
    3.5002    3.1065    1.2813 C   0  0  0  0  0  0  0  0  0  0  0  0
    3.7482    4.0885    1.6721 H   0  0  0  0  0  0  0  0  0  0  0  0
    4.3169    2.7594    0.6525 H   0  0  0  0  0  0  0  0  0  0  0  0
    2.6026    3.1516    0.6704 H   0  0  0  0  0  0  0  0  0  0  0  0
    2.0303    2.4056    3.2925 C   0  0  0  0  0  0  0  0  0  0  0  0
    1.0195    1.5574    2.7304 O   0  0  0  0  0  0  0  0  0  0  0  0
    1.5509    3.8556    3.2314 C   0  0  0  0  0  0  0  0  0  0  0  0
    1.2482    4.1175    2.2230 H   0  0  0  0  0  0  0  0  0  0  0  0
    0.6918    3.9713    3.8876 H   0  0  0  0  0  0  0  0  0  0  0  0
    2.3376    4.5260    3.5657 H   0  0  0  0  0  0  0  0  0  0  0  0
    2.1999    1.9974    4.7611 C   0  0  0  0  0  0  0  0  0  0  0  0
    2.4928    0.9539    4.8325 H   0  0  0  0  0  0  0  0  0  0  0  0
    2.9377    2.6200    5.2572 H   0  0  0  0  0  0  0  0  0  0  0  0
    1.2445    2.1105    5.2682 H   0  0  0  0  0  0  0  0  0  0  0  0
    2.2782   -1.3309    0.1741 B   0  0  0  0  0  0  0  0  0  0  0  0
    3.1779   -2.2414    0.6836 O   0  0  0  0  0  0  0  0  0  0  0  0
    4.4145   -2.1791   -0.0424 C   0  0  0  0  0  0  0  0  0  0  0  0
    5.3857   -1.3676    0.8214 C   0  0  0  0  0  0  0  0  0  0  0  0
    4.9372   -0.4041    1.0477 H   0  0  0  0  0  0  0  0  0  0  0  0
    5.5397   -1.8968    1.7587 H   0  0  0  0  0  0  0  0  0  0  0  0
    6.3439   -1.2384    0.3285 H   0  0  0  0  0  0  0  0  0  0  0  0
    4.9627   -3.5921   -0.2351 C   0  0  0  0  0  0  0  0  0  0  0  0
    5.2024   -4.0115    0.7384 H   0  0  0  0  0  0  0  0  0  0  0  0
    5.8659   -3.5618   -0.8378 H   0  0  0  0  0  0  0  0  0  0  0  0
    4.2322   -4.2391   -0.7090 H   0  0  0  0  0  0  0  0  0  0  0  0
    4.0041   -1.4387   -1.3636 C   0  0  0  0  0  0  0  0  0  0  0  0
    2.7584   -0.8197   -1.0077 O   0  0  0  0  0  0  0  0  0  0  0  0
    4.9830   -0.3609   -1.8256 C   0  0  0  0  0  0  0  0  0  0  0  0
    5.9663   -0.7900   -1.9963 H   0  0  0  0  0  0  0  0  0  0  0  0
    4.6225    0.0705   -2.7561 H   0  0  0  0  0  0  0  0  0  0  0  0
    5.0486    0.4316   -1.0882 H   0  0  0  0  0  0  0  0  0  0  0  0
    3.7186   -2.3924   -2.5315 C   0  0  0  0  0  0  0  0  0  0  0  0
    2.9978   -3.1489   -2.2340 H   0  0  0  0  0  0  0  0  0  0  0  0
    3.2847   -1.8198   -3.3477 H   0  0  0  0  0  0  0  0  0  0  0  0
    4.6304   -2.8686   -2.8784 H   0  0  0  0  0  0  0  0  0  0  0  0
   -3.4256   -3.8062   -2.7104 H   0  0  0  0  0  0  0  0  0  0  0  0
   -5.0568    1.7818    1.0105 H   0  0  0  0  0  0  0  0  0  0  0  0
    0.2359   -1.6814    2.9603 C   0  0  0  0  0  0  0  0  0  0  0  0
   -1.0646   -1.9368    3.3353 C   0  0  0  0  0  0  0  0  0  0  0  0
    1.2057   -1.6665    4.0061 C   0  0  0  0  0  0  0  0  0  0  0  0
   -1.4293   -1.9887    4.6970 C   0  0  0  0  0  0  0  0  0  0  0  0
   -1.8471   -2.0840    2.6054 H   0  0  0  0  0  0  0  0  0  0  0  0
    2.5946   -1.6430    3.7771 C   0  0  0  0  0  0  0  0  0  0  0  0
    0.7417   -1.7356    5.3527 C   0  0  0  0  0  0  0  0  0  0  0  0
   -0.5619   -1.8609    5.6703 N   0  0  0  0  0  0  0  0  0  0  0  0
   -2.8621   -2.1944    5.0805 C   0  0  0  0  0  0  0  0  0  0  0  0
    3.4841   -1.6476    4.8176 C   0  0  0  0  0  0  0  0  0  0  0  0
    2.9412   -1.6373    2.7578 H   0  0  0  0  0  0  0  0  0  0  0  0
    1.6702   -1.7121    6.4136 C   0  0  0  0  0  0  0  0  0  0  0  0
   -2.9391   -2.2895    6.1593 H   0  0  0  0  0  0  0  0  0  0  0  0
   -3.2526   -3.0925    4.6058 H   0  0  0  0  0  0  0  0  0  0  0  0
   -3.4621   -1.3475    4.7522 H   0  0  0  0  0  0  0  0  0  0  0  0
    3.0135   -1.6669    6.1434 C   0  0  0  0  0  0  0  0  0  0  0  0
    4.5485   -1.6400    4.6388 H   0  0  0  0  0  0  0  0  0  0  0  0
    1.2956   -1.7532    7.4238 H   0  0  0  0  0  0  0  0  0  0  0  0
    4.0277   -1.6504    7.2431 C   0  0  0  0  0  0  0  0  0  0  0  0
    4.7902   -0.5322    7.2287 F   0  0  0  0  0  0  0  0  0  0  0  0
    3.5055   -1.7189    8.4779 F   0  0  0  0  0  0  0  0  0  0  0  0
    4.9077   -2.6741    7.1589 F   0  0  0  0  0  0  0  0  0  0  0  0
  1  2  4  0  0  0  0
  2  3  4  0  0  0  0
  3  4  4  0  0  0  0
  4  5  4  0  0  0  0
  1  6  4  0  0  0  0
  5  6  4  0  0  0  0
  6  7  1  0  0  0  0
  5  8  1  0  0  0  0
  3  9  1  0  0  0  0
  2 10  1  0  0  0  0
 10 11  4  0  0  0  0
 11 12  4  0  0  0  0
 12 13  4  0  0  0  0
 13 14  4  0  0  0  0
 10 15  4  0  0  0  0
 14 15  4  0  0  0  0
 15 16  1  0  0  0  0
 13 17  1  0  0  0  0
 12 18  1  0  0  0  0
  1 19  1  0  0  0  0
 11 19  1  0  0  0  0
 19 20  1  0  0  0  0
 19 21  1  0  0  0  0
 21 22  1  0  0  0  0
 22 23  1  0  0  0  0
 23 24  1  0  0  0  0
 24 25  1  0  0  0  0
 24 26  1  0  0  0  0
 24 27  1  0  0  0  0
 23 28  1  0  0  0  0
 28 29  1  0  0  0  0
 28 30  1  0  0  0  0
 28 31  1  0  0  0  0
 23 32  1  0  0  0  0
 21 33  1  0  0  0  0
 32 33  1  0  0  0  0
 32 34  1  0  0  0  0
 34 35  1  0  0  0  0
 34 36  1  0  0  0  0
 34 37  1  0  0  0  0
 32 38  1  0  0  0  0
 38 39  1  0  0  0  0
 38 40  1  0  0  0  0
 38 41  1  0  0  0  0
 19 42  1  0  0  0  0
 42 43  1  0  0  0  0
 43 44  1  0  0  0  0
 44 45  1  0  0  0  0
 45 46  1  0  0  0  0
 45 47  1  0  0  0  0
 45 48  1  0  0  0  0
 44 49  1  0  0  0  0
 49 50  1  0  0  0  0
 49 51  1  0  0  0  0
 49 52  1  0  0  0  0
 44 53  1  0  0  0  0
 42 54  1  0  0  0  0
 53 54  1  0  0  0  0
 53 55  1  0  0  0  0
 55 56  1  0  0  0  0
 55 57  1  0  0  0  0
 55 58  1  0  0  0  0
 53 59  1  0  0  0  0
 59 60  1  0  0  0  0
 59 61  1  0  0  0  0
 59 62  1  0  0  0  0
 19 63  1  0  0  0  0
 63 64  1  0  0  0  0
 64 65  1  0  0  0  0
 65 66  1  0  0  0  0
 66 67  1  0  0  0  0
 66 68  1  0  0  0  0
 66 69  1  0  0  0  0
 65 70  1  0  0  0  0
 70 71  1  0  0  0  0
 70 72  1  0  0  0  0
 70 73  1  0  0  0  0
 65 74  1  0  0  0  0
 63 75  1  0  0  0  0
 74 75  1  0  0  0  0
 74 76  1  0  0  0  0
 76 77  1  0  0  0  0
 76 78  1  0  0  0  0
 76 79  1  0  0  0  0
 74 80  1  0  0  0  0
 80 81  1  0  0  0  0
 80 82  1  0  0  0  0
 80 83  1  0  0  0  0
  4 84  1  0  0  0  0
 14 85  1  0  0  0  0
 19 86  1  0  0  0  0
 20 86  1  0  0  0  0
 86 87  4  0  0  0  0
 86 88  4  0  0  0  0
 87 89  4  0  0  0  0
 87 90  1  0  0  0  0
 88 91  4  0  0  0  0
 88 92  4  0  0  0  0
 89 93  4  0  0  0  0
 92 93  4  0  0  0  0
 89 94  1  0  0  0  0
 91 95  2  0  0  0  0
 91 96  1  0  0  0  0
 92 97  4  0  0  0  0
 94 98  1  0  0  0  0
 94 99  1  0  0  0  0
 94100  1  0  0  0  0
 95101  4  0  0  0  0
 97101  2  0  0  0  0
 95102  1  0  0  0  0
 97103  1  0  0  0  0
101104  1  0  0  0  0
104105  1  0  0  0  0
104106  1  0  0  0  0
104107  1  0  0  0  0
M  END
