
  xtb     01142214173D
 xtb: 6.4.1 (1a32961)
100108  0     0  0            999 V2000
   -0.9060   -2.0248   -0.3695 N   0  0  0  0  0  0  0  0  0  0  0  0
   -2.1571   -1.5533   -0.5439 C   0  0  0  0  0  0  0  0  0  0  0  0
   -3.0351   -2.1607   -1.4521 C   0  0  0  0  0  0  0  0  0  0  0  0
   -2.6191   -3.2473   -2.1878 C   0  0  0  0  0  0  0  0  0  0  0  0
   -1.3198   -3.7181   -2.0035 C   0  0  0  0  0  0  0  0  0  0  0  0
   -0.5152   -3.0748   -1.0881 C   0  0  0  0  0  0  0  0  0  0  0  0
    0.4964   -3.4102   -0.9070 H   0  0  0  0  0  0  0  0  0  0  0  0
   -0.9513   -4.5663   -2.5574 H   0  0  0  0  0  0  0  0  0  0  0  0
   -4.0373   -1.7855   -1.5799 H   0  0  0  0  0  0  0  0  0  0  0  0
   -2.5214   -0.3934    0.2547 C   0  0  0  0  0  0  0  0  0  0  0  0
   -1.5832    0.0623    1.1153 N   0  0  0  0  0  0  0  0  0  0  0  0
   -1.8743    1.1195    1.8727 C   0  0  0  0  0  0  0  0  0  0  0  0
   -3.0795    1.7874    1.8194 C   0  0  0  0  0  0  0  0  0  0  0  0
   -4.0506    1.3404    0.9248 C   0  0  0  0  0  0  0  0  0  0  0  0
   -3.7641    0.2441    0.1419 C   0  0  0  0  0  0  0  0  0  0  0  0
   -4.5007   -0.1145   -0.5581 H   0  0  0  0  0  0  0  0  0  0  0  0
   -3.2611    2.6358    2.4594 H   0  0  0  0  0  0  0  0  0  0  0  0
   -1.0875    1.4347    2.5409 H   0  0  0  0  0  0  0  0  0  0  0  0
    0.4215   -0.8165    0.9133 Ir  0  0  0  0  0  0  0  0  0  0  0  0
    0.8726   -2.2303    1.5405 H   0  0  0  0  0  0  0  0  0  0  0  0
    0.4193    0.6119   -0.6052 B   0  0  0  0  0  0  0  0  0  0  0  0
   -0.1783    0.3075   -1.8154 O   0  0  0  0  0  0  0  0  0  0  0  0
   -0.2728    1.4818   -2.6270 C   0  0  0  0  0  0  0  0  0  0  0  0
    0.0427    1.1296   -4.0788 C   0  0  0  0  0  0  0  0  0  0  0  0
    0.9824    0.5917   -4.1464 H   0  0  0  0  0  0  0  0  0  0  0  0
    0.0929    2.0329   -4.6816 H   0  0  0  0  0  0  0  0  0  0  0  0
   -0.7444    0.4892   -4.4699 H   0  0  0  0  0  0  0  0  0  0  0  0
   -1.7228    1.9788   -2.5321 C   0  0  0  0  0  0  0  0  0  0  0  0
   -1.8830    2.8457   -3.1662 H   0  0  0  0  0  0  0  0  0  0  0  0
   -2.3860    1.1772   -2.8520 H   0  0  0  0  0  0  0  0  0  0  0  0
   -1.9675    2.2270   -1.5012 H   0  0  0  0  0  0  0  0  0  0  0  0
    0.7466    2.4510   -1.9434 C   0  0  0  0  0  0  0  0  0  0  0  0
    0.8291    1.9271   -0.6114 O   0  0  0  0  0  0  0  0  0  0  0  0
    2.1524    2.3420   -2.5467 C   0  0  0  0  0  0  0  0  0  0  0  0
    2.4798    1.3062   -2.4972 H   0  0  0  0  0  0  0  0  0  0  0  0
    2.1756    2.7036   -3.5707 H   0  0  0  0  0  0  0  0  0  0  0  0
    2.8367    2.9356   -1.9450 H   0  0  0  0  0  0  0  0  0  0  0  0
    0.3188    3.9168   -1.9052 C   0  0  0  0  0  0  0  0  0  0  0  0
   -0.5887    4.0487   -1.3240 H   0  0  0  0  0  0  0  0  0  0  0  0
    1.1064    4.5055   -1.4410 H   0  0  0  0  0  0  0  0  0  0  0  0
    0.1580    4.2828   -2.9162 H   0  0  0  0  0  0  0  0  0  0  0  0
    1.5733    0.6275    1.8930 B   0  0  0  0  0  0  0  0  0  0  0  0
    2.9382    0.7881    1.8547 O   0  0  0  0  0  0  0  0  0  0  0  0
    3.3110    2.0350    2.4548 C   0  0  0  0  0  0  0  0  0  0  0  0
    4.5765    1.8470    3.2902 C   0  0  0  0  0  0  0  0  0  0  0  0
    4.4548    1.0328    3.9968 H   0  0  0  0  0  0  0  0  0  0  0  0
    5.4063    1.6044    2.6311 H   0  0  0  0  0  0  0  0  0  0  0  0
    4.8116    2.7634    3.8247 H   0  0  0  0  0  0  0  0  0  0  0  0
    3.5947    3.0048    1.3009 C   0  0  0  0  0  0  0  0  0  0  0  0
    3.8688    3.9909    1.6640 H   0  0  0  0  0  0  0  0  0  0  0  0
    4.4139    2.6060    0.7065 H   0  0  0  0  0  0  0  0  0  0  0  0
    2.7164    3.0613    0.6630 H   0  0  0  0  0  0  0  0  0  0  0  0
    2.0333    2.4210    3.2762 C   0  0  0  0  0  0  0  0  0  0  0  0
    1.0131    1.6147    2.6748 O   0  0  0  0  0  0  0  0  0  0  0  0
    1.6308    3.8925    3.1827 C   0  0  0  0  0  0  0  0  0  0  0  0
    1.3827    4.1580    2.1604 H   0  0  0  0  0  0  0  0  0  0  0  0
    0.7526    4.0602    3.8014 H   0  0  0  0  0  0  0  0  0  0  0  0
    2.4374    4.5261    3.5417 H   0  0  0  0  0  0  0  0  0  0  0  0
    2.1182    2.0144    4.7529 C   0  0  0  0  0  0  0  0  0  0  0  0
    2.3436    0.9543    4.8351 H   0  0  0  0  0  0  0  0  0  0  0  0
    2.8700    2.5962    5.2772 H   0  0  0  0  0  0  0  0  0  0  0  0
    1.1507    2.1875    5.2183 H   0  0  0  0  0  0  0  0  0  0  0  0
    2.2782   -1.3309    0.1741 B   0  0  0  0  0  0  0  0  0  0  0  0
    3.1218   -2.2843    0.7068 O   0  0  0  0  0  0  0  0  0  0  0  0
    4.3952   -2.2511    0.0521 C   0  0  0  0  0  0  0  0  0  0  0  0
    5.3502   -1.5014    0.9876 C   0  0  0  0  0  0  0  0  0  0  0  0
    4.9270   -0.5271    1.2156 H   0  0  0  0  0  0  0  0  0  0  0  0
    5.4302   -2.0597    1.9173 H   0  0  0  0  0  0  0  0  0  0  0  0
    6.3390   -1.3988    0.5513 H   0  0  0  0  0  0  0  0  0  0  0  0
    4.9018   -3.6795   -0.1486 C   0  0  0  0  0  0  0  0  0  0  0  0
    5.0634   -4.1324    0.8260 H   0  0  0  0  0  0  0  0  0  0  0  0
    5.8413   -3.6700   -0.6942 H   0  0  0  0  0  0  0  0  0  0  0  0
    4.1777   -4.2846   -0.6838 H   0  0  0  0  0  0  0  0  0  0  0  0
    4.0852   -1.4627   -1.2688 C   0  0  0  0  0  0  0  0  0  0  0  0
    2.8438   -0.8082   -0.9681 O   0  0  0  0  0  0  0  0  0  0  0  0
    5.1285   -0.4119   -1.6461 C   0  0  0  0  0  0  0  0  0  0  0  0
    6.1033   -0.8751   -1.7718 H   0  0  0  0  0  0  0  0  0  0  0  0
    4.8398    0.0574   -2.5833 H   0  0  0  0  0  0  0  0  0  0  0  0
    5.1812    0.3581   -0.8842 H   0  0  0  0  0  0  0  0  0  0  0  0
    3.8352   -2.3772   -2.4760 C   0  0  0  0  0  0  0  0  0  0  0  0
    3.0648   -3.1066   -2.2416 H   0  0  0  0  0  0  0  0  0  0  0  0
    3.4788   -1.7693   -3.3042 H   0  0  0  0  0  0  0  0  0  0  0  0
    4.7461   -2.8859   -2.7768 H   0  0  0  0  0  0  0  0  0  0  0  0
   -3.2853   -3.7230   -2.8916 H   0  0  0  0  0  0  0  0  0  0  0  0
   -5.0044    1.8401    0.8455 H   0  0  0  0  0  0  0  0  0  0  0  0
    0.2359   -1.6814    2.9603 C   0  0  0  0  0  0  0  0  0  0  0  0
   -0.9997   -1.8991    3.5037 C   0  0  0  0  0  0  0  0  0  0  0  0
    1.1534   -1.7153    4.0585 C   0  0  0  0  0  0  0  0  0  0  0  0
   -0.9160   -2.0152    4.8728 N   0  0  0  0  0  0  0  0  0  0  0  0
   -1.9575   -1.9829    3.0249 H   0  0  0  0  0  0  0  0  0  0  0  0
    2.5421   -1.6248    4.1471 C   0  0  0  0  0  0  0  0  0  0  0  0
    0.3924   -1.9057    5.2401 C   0  0  0  0  0  0  0  0  0  0  0  0
   -1.6928   -2.1444    5.4981 H   0  0  0  0  0  0  0  0  0  0  0  0
    3.1298   -1.7024    5.3914 C   0  0  0  0  0  0  0  0  0  0  0  0
    3.1162   -1.4946    3.2435 H   0  0  0  0  0  0  0  0  0  0  0  0
    0.9915   -1.9759    6.4927 C   0  0  0  0  0  0  0  0  0  0  0  0
    2.3646   -1.8690    6.5511 C   0  0  0  0  0  0  0  0  0  0  0  0
    4.2047   -1.6343    5.4859 H   0  0  0  0  0  0  0  0  0  0  0  0
    0.4027   -2.1144    7.3883 H   0  0  0  0  0  0  0  0  0  0  0  0
    2.8633   -1.9205    7.5085 H   0  0  0  0  0  0  0  0  0  0  0  0
  1  2  4  0  0  0  0
  2  3  4  0  0  0  0
  3  4  4  0  0  0  0
  4  5  4  0  0  0  0
  1  6  4  0  0  0  0
  5  6  4  0  0  0  0
  6  7  1  0  0  0  0
  5  8  1  0  0  0  0
  3  9  1  0  0  0  0
  2 10  1  0  0  0  0
 10 11  4  0  0  0  0
 11 12  4  0  0  0  0
 12 13  4  0  0  0  0
 13 14  4  0  0  0  0
 10 15  4  0  0  0  0
 14 15  4  0  0  0  0
 15 16  1  0  0  0  0
 13 17  1  0  0  0  0
 12 18  1  0  0  0  0
  1 19  1  0  0  0  0
 11 19  1  0  0  0  0
 19 20  1  0  0  0  0
 19 21  1  0  0  0  0
 21 22  1  0  0  0  0
 22 23  1  0  0  0  0
 23 24  1  0  0  0  0
 24 25  1  0  0  0  0
 24 26  1  0  0  0  0
 24 27  1  0  0  0  0
 23 28  1  0  0  0  0
 28 29  1  0  0  0  0
 28 30  1  0  0  0  0
 28 31  1  0  0  0  0
 23 32  1  0  0  0  0
 21 33  1  0  0  0  0
 32 33  1  0  0  0  0
 32 34  1  0  0  0  0
 34 35  1  0  0  0  0
 34 36  1  0  0  0  0
 34 37  1  0  0  0  0
 32 38  1  0  0  0  0
 38 39  1  0  0  0  0
 38 40  1  0  0  0  0
 38 41  1  0  0  0  0
 19 42  1  0  0  0  0
 42 43  1  0  0  0  0
 43 44  1  0  0  0  0
 44 45  1  0  0  0  0
 45 46  1  0  0  0  0
 45 47  1  0  0  0  0
 45 48  1  0  0  0  0
 44 49  1  0  0  0  0
 49 50  1  0  0  0  0
 49 51  1  0  0  0  0
 49 52  1  0  0  0  0
 44 53  1  0  0  0  0
 42 54  1  0  0  0  0
 53 54  1  0  0  0  0
 53 55  1  0  0  0  0
 55 56  1  0  0  0  0
 55 57  1  0  0  0  0
 55 58  1  0  0  0  0
 53 59  1  0  0  0  0
 59 60  1  0  0  0  0
 59 61  1  0  0  0  0
 59 62  1  0  0  0  0
 19 63  1  0  0  0  0
 63 64  1  0  0  0  0
 64 65  1  0  0  0  0
 65 66  1  0  0  0  0
 66 67  1  0  0  0  0
 66 68  1  0  0  0  0
 66 69  1  0  0  0  0
 65 70  1  0  0  0  0
 70 71  1  0  0  0  0
 70 72  1  0  0  0  0
 70 73  1  0  0  0  0
 65 74  1  0  0  0  0
 63 75  1  0  0  0  0
 74 75  1  0  0  0  0
 74 76  1  0  0  0  0
 76 77  1  0  0  0  0
 76 78  1  0  0  0  0
 76 79  1  0  0  0  0
 74 80  1  0  0  0  0
 80 81  1  0  0  0  0
 80 82  1  0  0  0  0
 80 83  1  0  0  0  0
  4 84  1  0  0  0  0
 14 85  1  0  0  0  0
 19 86  1  0  0  0  0
 20 86  1  0  0  0  0
 86 87  2  0  0  0  0
 86 88  1  0  0  0  0
 87 89  1  0  0  0  0
 87 90  1  0  0  0  0
 88 91  4  0  0  0  0
 88 92  4  0  0  0  0
 89 92  1  0  0  0  0
 89 93  1  0  0  0  0
 91 94  2  0  0  0  0
 91 95  1  0  0  0  0
 92 96  4  0  0  0  0
 94 97  4  0  0  0  0
 96 97  4  0  0  0  0
 94 98  1  0  0  0  0
 96 99  1  0  0  0  0
 97100  1  0  0  0  0
M  END
