
  xtb     01142213183D
 xtb: 6.4.1 (1a32961)
 96103  0     0  0            999 V2000
   -0.9282   -2.0336   -0.3642 N   0  0  0  0  0  0  0  0  0  0  0  0
   -2.1767   -1.5576   -0.5341 C   0  0  0  0  0  0  0  0  0  0  0  0
   -3.0473   -2.1383   -1.4649 C   0  0  0  0  0  0  0  0  0  0  0  0
   -2.6246   -3.2054   -2.2268 C   0  0  0  0  0  0  0  0  0  0  0  0
   -1.3287   -3.6824   -2.0448 C   0  0  0  0  0  0  0  0  0  0  0  0
   -0.5301   -3.0640   -1.1058 C   0  0  0  0  0  0  0  0  0  0  0  0
    0.4796   -3.4042   -0.9236 H   0  0  0  0  0  0  0  0  0  0  0  0
   -0.9560   -4.5159   -2.6176 H   0  0  0  0  0  0  0  0  0  0  0  0
   -4.0474   -1.7584   -1.5929 H   0  0  0  0  0  0  0  0  0  0  0  0
   -2.5498   -0.4188    0.2965 C   0  0  0  0  0  0  0  0  0  0  0  0
   -1.6069    0.0391    1.1489 N   0  0  0  0  0  0  0  0  0  0  0  0
   -1.9022    1.0739    1.9333 C   0  0  0  0  0  0  0  0  0  0  0  0
   -3.1245    1.7144    1.9201 C   0  0  0  0  0  0  0  0  0  0  0  0
   -4.1028    1.2627    1.0383 C   0  0  0  0  0  0  0  0  0  0  0  0
   -3.8083    0.1906    0.2235 C   0  0  0  0  0  0  0  0  0  0  0  0
   -4.5527   -0.1708   -0.4661 H   0  0  0  0  0  0  0  0  0  0  0  0
   -3.3109    2.5439    2.5825 H   0  0  0  0  0  0  0  0  0  0  0  0
   -1.1073    1.3958    2.5883 H   0  0  0  0  0  0  0  0  0  0  0  0
    0.4215   -0.8165    0.9133 Ir  0  0  0  0  0  0  0  0  0  0  0  0
    0.8726   -2.2303    1.5405 H   0  0  0  0  0  0  0  0  0  0  0  0
    0.4100    0.5922   -0.6207 B   0  0  0  0  0  0  0  0  0  0  0  0
   -0.2220    0.2908   -1.8142 O   0  0  0  0  0  0  0  0  0  0  0  0
   -0.3248    1.4663   -2.6245 C   0  0  0  0  0  0  0  0  0  0  0  0
   -0.0595    1.1084   -4.0845 C   0  0  0  0  0  0  0  0  0  0  0  0
    0.8717    0.5600   -4.1813 H   0  0  0  0  0  0  0  0  0  0  0  0
   -0.0182    2.0103   -4.6898 H   0  0  0  0  0  0  0  0  0  0  0  0
   -0.8658    0.4767   -4.4497 H   0  0  0  0  0  0  0  0  0  0  0  0
   -1.7639    1.9831   -2.4833 C   0  0  0  0  0  0  0  0  0  0  0  0
   -1.9324    2.8522   -3.1121 H   0  0  0  0  0  0  0  0  0  0  0  0
   -2.4481    1.1909   -2.7811 H   0  0  0  0  0  0  0  0  0  0  0  0
   -1.9713    2.2349   -1.4450 H   0  0  0  0  0  0  0  0  0  0  0  0
    0.7286    2.4215   -1.9736 C   0  0  0  0  0  0  0  0  0  0  0  0
    0.8424    1.8977   -0.6432 O   0  0  0  0  0  0  0  0  0  0  0  0
    2.1146    2.2917   -2.6171 C   0  0  0  0  0  0  0  0  0  0  0  0
    2.4300    1.2520   -2.5740 H   0  0  0  0  0  0  0  0  0  0  0  0
    2.1128    2.6506   -3.6423 H   0  0  0  0  0  0  0  0  0  0  0  0
    2.8240    2.8775   -2.0371 H   0  0  0  0  0  0  0  0  0  0  0  0
    0.3231    3.8933   -1.9245 C   0  0  0  0  0  0  0  0  0  0  0  0
   -0.5638    4.0388   -1.3157 H   0  0  0  0  0  0  0  0  0  0  0  0
    1.1331    4.4711   -1.4859 H   0  0  0  0  0  0  0  0  0  0  0  0
    0.1363    4.2604   -2.9305 H   0  0  0  0  0  0  0  0  0  0  0  0
    1.5775    0.6308    1.8798 B   0  0  0  0  0  0  0  0  0  0  0  0
    2.9460    0.7517    1.9034 O   0  0  0  0  0  0  0  0  0  0  0  0
    3.3145    2.0333    2.4345 C   0  0  0  0  0  0  0  0  0  0  0  0
    4.5629    1.8977    3.3042 C   0  0  0  0  0  0  0  0  0  0  0  0
    4.4353    1.1226    4.0525 H   0  0  0  0  0  0  0  0  0  0  0  0
    5.4076    1.6257    2.6765 H   0  0  0  0  0  0  0  0  0  0  0  0
    4.7808    2.8435    3.7930 H   0  0  0  0  0  0  0  0  0  0  0  0
    3.6208    2.9309    1.2296 C   0  0  0  0  0  0  0  0  0  0  0  0
    3.9006    3.9335    1.5390 H   0  0  0  0  0  0  0  0  0  0  0  0
    4.4422    2.4904    0.6690 H   0  0  0  0  0  0  0  0  0  0  0  0
    2.7498    2.9574    0.5797 H   0  0  0  0  0  0  0  0  0  0  0  0
    2.0202    2.4717    3.1996 C   0  0  0  0  0  0  0  0  0  0  0  0
    1.0054    1.6649    2.5865 O   0  0  0  0  0  0  0  0  0  0  0  0
    1.6527    3.9466    3.0493 C   0  0  0  0  0  0  0  0  0  0  0  0
    1.4346    4.1823    2.0131 H   0  0  0  0  0  0  0  0  0  0  0  0
    0.7646    4.1544    3.6411 H   0  0  0  0  0  0  0  0  0  0  0  0
    2.4655    4.5735    3.4061 H   0  0  0  0  0  0  0  0  0  0  0  0
    2.0500    2.1062    4.6890 C   0  0  0  0  0  0  0  0  0  0  0  0
    2.2643    1.0477    4.8066 H   0  0  0  0  0  0  0  0  0  0  0  0
    2.7877    2.6970    5.2230 H   0  0  0  0  0  0  0  0  0  0  0  0
    1.0678    2.2964    5.1152 H   0  0  0  0  0  0  0  0  0  0  0  0
    2.2782   -1.3309    0.1741 B   0  0  0  0  0  0  0  0  0  0  0  0
    3.0860   -2.3309    0.6722 O   0  0  0  0  0  0  0  0  0  0  0  0
    4.3764   -2.2844    0.0489 C   0  0  0  0  0  0  0  0  0  0  0  0
    5.3152   -1.5922    1.0428 C   0  0  0  0  0  0  0  0  0  0  0  0
    4.8966   -0.6249    1.3060 H   0  0  0  0  0  0  0  0  0  0  0  0
    5.3617   -2.1934    1.9473 H   0  0  0  0  0  0  0  0  0  0  0  0
    6.3163   -1.4830    0.6374 H   0  0  0  0  0  0  0  0  0  0  0  0
    4.8703   -3.7074   -0.2102 C   0  0  0  0  0  0  0  0  0  0  0  0
    5.0029   -4.2104    0.7439 H   0  0  0  0  0  0  0  0  0  0  0  0
    5.8232   -3.6824   -0.7314 H   0  0  0  0  0  0  0  0  0  0  0  0
    4.1532   -4.2759   -0.7929 H   0  0  0  0  0  0  0  0  0  0  0  0
    4.1079   -1.4284   -1.2385 C   0  0  0  0  0  0  0  0  0  0  0  0
    2.8735   -0.7636   -0.9286 O   0  0  0  0  0  0  0  0  0  0  0  0
    5.1767   -0.3817   -1.5471 C   0  0  0  0  0  0  0  0  0  0  0  0
    6.1438   -0.8577   -1.6831 H   0  0  0  0  0  0  0  0  0  0  0  0
    4.9099    0.1408   -2.4623 H   0  0  0  0  0  0  0  0  0  0  0  0
    5.2335    0.3468   -0.7459 H   0  0  0  0  0  0  0  0  0  0  0  0
    3.8614   -2.2796   -2.4917 C   0  0  0  0  0  0  0  0  0  0  0  0
    3.0753   -3.0056   -2.3037 H   0  0  0  0  0  0  0  0  0  0  0  0
    3.5283   -1.6266   -3.2948 H   0  0  0  0  0  0  0  0  0  0  0  0
    4.7684   -2.7890   -2.8028 H   0  0  0  0  0  0  0  0  0  0  0  0
   -3.2852   -3.6604   -2.9489 H   0  0  0  0  0  0  0  0  0  0  0  0
   -5.0704    1.7387    0.9921 H   0  0  0  0  0  0  0  0  0  0  0  0
    0.2359   -1.6814    2.9603 C   0  0  0  0  0  0  0  0  0  0  0  0
   -0.9902   -2.0649    3.3840 N   0  0  0  0  0  0  0  0  0  0  0  0
    1.0090   -1.6223    4.1083 C   0  0  0  0  0  0  0  0  0  0  0  0
   -1.0656   -2.2152    4.7161 N   0  0  0  0  0  0  0  0  0  0  0  0
   -1.8126   -2.2294    2.8275 H   0  0  0  0  0  0  0  0  0  0  0  0
    0.1514   -1.9458    5.1724 C   0  0  0  0  0  0  0  0  0  0  0  0
    2.0509   -1.3806    4.1603 H   0  0  0  0  0  0  0  0  0  0  0  0
    0.4824   -2.0160    6.6238 C   0  0  0  0  0  0  0  0  0  0  0  0
    1.5379   -1.8042    6.7731 H   0  0  0  0  0  0  0  0  0  0  0  0
    0.2571   -3.0071    7.0139 H   0  0  0  0  0  0  0  0  0  0  0  0
   -0.1098   -1.2941    7.1836 H   0  0  0  0  0  0  0  0  0  0  0  0
  1  2  4  0  0  0  0
  2  3  4  0  0  0  0
  3  4  4  0  0  0  0
  4  5  4  0  0  0  0
  1  6  4  0  0  0  0
  5  6  4  0  0  0  0
  6  7  1  0  0  0  0
  5  8  1  0  0  0  0
  3  9  1  0  0  0  0
  2 10  1  0  0  0  0
 10 11  4  0  0  0  0
 11 12  4  0  0  0  0
 12 13  4  0  0  0  0
 13 14  4  0  0  0  0
 10 15  4  0  0  0  0
 14 15  4  0  0  0  0
 15 16  1  0  0  0  0
 13 17  1  0  0  0  0
 12 18  1  0  0  0  0
  1 19  1  0  0  0  0
 11 19  1  0  0  0  0
 19 20  1  0  0  0  0
 19 21  1  0  0  0  0
 21 22  1  0  0  0  0
 22 23  1  0  0  0  0
 23 24  1  0  0  0  0
 24 25  1  0  0  0  0
 24 26  1  0  0  0  0
 24 27  1  0  0  0  0
 23 28  1  0  0  0  0
 28 29  1  0  0  0  0
 28 30  1  0  0  0  0
 28 31  1  0  0  0  0
 23 32  1  0  0  0  0
 21 33  1  0  0  0  0
 32 33  1  0  0  0  0
 32 34  1  0  0  0  0
 34 35  1  0  0  0  0
 34 36  1  0  0  0  0
 34 37  1  0  0  0  0
 32 38  1  0  0  0  0
 38 39  1  0  0  0  0
 38 40  1  0  0  0  0
 38 41  1  0  0  0  0
 19 42  1  0  0  0  0
 42 43  1  0  0  0  0
 43 44  1  0  0  0  0
 44 45  1  0  0  0  0
 45 46  1  0  0  0  0
 45 47  1  0  0  0  0
 45 48  1  0  0  0  0
 44 49  1  0  0  0  0
 49 50  1  0  0  0  0
 49 51  1  0  0  0  0
 49 52  1  0  0  0  0
 44 53  1  0  0  0  0
 42 54  1  0  0  0  0
 53 54  1  0  0  0  0
 53 55  1  0  0  0  0
 55 56  1  0  0  0  0
 55 57  1  0  0  0  0
 55 58  1  0  0  0  0
 53 59  1  0  0  0  0
 59 60  1  0  0  0  0
 59 61  1  0  0  0  0
 59 62  1  0  0  0  0
 19 63  1  0  0  0  0
 63 64  1  0  0  0  0
 64 65  1  0  0  0  0
 65 66  1  0  0  0  0
 66 67  1  0  0  0  0
 66 68  1  0  0  0  0
 66 69  1  0  0  0  0
 65 70  1  0  0  0  0
 70 71  1  0  0  0  0
 70 72  1  0  0  0  0
 70 73  1  0  0  0  0
 65 74  1  0  0  0  0
 63 75  1  0  0  0  0
 74 75  1  0  0  0  0
 74 76  1  0  0  0  0
 76 77  1  0  0  0  0
 76 78  1  0  0  0  0
 76 79  1  0  0  0  0
 74 80  1  0  0  0  0
 80 81  1  0  0  0  0
 80 82  1  0  0  0  0
 80 83  1  0  0  0  0
  4 84  1  0  0  0  0
 14 85  1  0  0  0  0
 19 86  1  0  0  0  0
 20 86  1  0  0  0  0
 86 87  4  0  0  0  0
 86 88  4  0  0  0  0
 87 89  1  0  0  0  0
 87 90  1  0  0  0  0
 88 91  4  0  0  0  0
 89 91  4  0  0  0  0
 88 92  1  0  0  0  0
 91 93  1  0  0  0  0
 93 94  1  0  0  0  0
 93 95  1  0  0  0  0
 93 96  1  0  0  0  0
M  END
