   11

C         -0.77151       -1.91415       -0.00131
C         -1.82854       -1.00464        0.00678
C         -1.56015        0.36144        0.01289
F         -2.57930        1.23037        0.01568
C         -0.25522        0.83946        0.01470
C          0.79578       -0.07214        0.00411
Cl         2.41988        0.49638        0.00170
C          0.54466       -1.44628       -0.00525
H         -2.85801       -1.34929        0.00789
H         -0.07583        1.90875        0.02396
H          1.36873       -2.15548       -0.01563
