   11
Created with kallisto
C      1.7189   -1.2051   -0.0004
C      0.3234   -1.2135   -0.0152
C      2.4091    0.0076    0.0088
C     -0.3757   -0.0073   -0.0183
H     -0.2111   -2.1595   -0.0232
C      1.7059    1.2129    0.0001
H      3.4964    0.0133    0.0236
C      0.3106    1.2069   -0.0138
Cl    -2.0964   -0.0163   -0.0244
H      2.2451    2.1570    0.0042
H     -0.2339    2.1471   -0.0191
