
  xtb     10082107273D
 xtb: 6.4.0 (f63f532)
 96103  0     0  0            999 V2000
   -0.9312   -2.0380   -0.3532 N   0  0  0  0  0  0  0  0  0  0  0  0
   -2.1843   -1.5721   -0.5073 C   0  0  0  0  0  0  0  0  0  0  0  0
   -3.0695   -2.1761   -1.4096 C   0  0  0  0  0  0  0  0  0  0  0  0
   -2.6553   -3.2558   -2.1586 C   0  0  0  0  0  0  0  0  0  0  0  0
   -1.3538   -3.7223   -1.9923 C   0  0  0  0  0  0  0  0  0  0  0  0
   -0.5414   -3.0804   -1.0809 C   0  0  0  0  0  0  0  0  0  0  0  0
    0.4736   -3.4111   -0.9118 H   0  0  0  0  0  0  0  0  0  0  0  0
   -0.9873   -4.5650   -2.5556 H   0  0  0  0  0  0  0  0  0  0  0  0
   -4.0747   -1.8056   -1.5251 H   0  0  0  0  0  0  0  0  0  0  0  0
   -2.5499   -0.4196    0.3084 C   0  0  0  0  0  0  0  0  0  0  0  0
   -1.6028    0.0505    1.1471 N   0  0  0  0  0  0  0  0  0  0  0  0
   -1.8954    1.0924    1.9213 C   0  0  0  0  0  0  0  0  0  0  0  0
   -3.1185    1.7317    1.9084 C   0  0  0  0  0  0  0  0  0  0  0  0
   -4.1000    1.2707    1.0355 C   0  0  0  0  0  0  0  0  0  0  0  0
   -3.8084    0.1896    0.2318 C   0  0  0  0  0  0  0  0  0  0  0  0
   -4.5554   -0.1782   -0.4518 H   0  0  0  0  0  0  0  0  0  0  0  0
   -3.3037    2.5666    2.5647 H   0  0  0  0  0  0  0  0  0  0  0  0
   -1.0979    1.4214    2.5694 H   0  0  0  0  0  0  0  0  0  0  0  0
    0.4215   -0.8165    0.9133 Ir  0  0  0  0  0  0  0  0  0  0  0  0
    0.8726   -2.2303    1.5405 H   0  0  0  0  0  0  0  0  0  0  0  0
    0.4020    0.5953   -0.6208 B   0  0  0  0  0  0  0  0  0  0  0  0
   -0.2224    0.2887   -1.8169 O   0  0  0  0  0  0  0  0  0  0  0  0
   -0.3106    1.4590   -2.6366 C   0  0  0  0  0  0  0  0  0  0  0  0
   -0.0409    1.0898   -4.0931 C   0  0  0  0  0  0  0  0  0  0  0  0
    0.8797    0.5222   -4.1792 H   0  0  0  0  0  0  0  0  0  0  0  0
    0.0241    1.9881   -4.7015 H   0  0  0  0  0  0  0  0  0  0  0  0
   -0.8568    0.4734   -4.4630 H   0  0  0  0  0  0  0  0  0  0  0  0
   -1.7450    1.9908   -2.5045 C   0  0  0  0  0  0  0  0  0  0  0  0
   -1.9047    2.8528   -3.1452 H   0  0  0  0  0  0  0  0  0  0  0  0
   -2.4359    1.2007   -2.7924 H   0  0  0  0  0  0  0  0  0  0  0  0
   -1.9515    2.2578   -1.4699 H   0  0  0  0  0  0  0  0  0  0  0  0
    0.7484    2.4087   -1.9876 C   0  0  0  0  0  0  0  0  0  0  0  0
    0.8426    1.8987   -0.6503 O   0  0  0  0  0  0  0  0  0  0  0  0
    2.1387    2.2517   -2.6158 C   0  0  0  0  0  0  0  0  0  0  0  0
    2.4373    1.2078   -2.5581 H   0  0  0  0  0  0  0  0  0  0  0  0
    2.1524    2.5996   -3.6446 H   0  0  0  0  0  0  0  0  0  0  0  0
    2.8508    2.8329   -2.0348 H   0  0  0  0  0  0  0  0  0  0  0  0
    0.3618    3.8860   -1.9609 C   0  0  0  0  0  0  0  0  0  0  0  0
   -0.5263    4.0510   -1.3588 H   0  0  0  0  0  0  0  0  0  0  0  0
    1.1769    4.4600   -1.5267 H   0  0  0  0  0  0  0  0  0  0  0  0
    0.1842    4.2412   -2.9728 H   0  0  0  0  0  0  0  0  0  0  0  0
    1.5739    0.6430    1.8617 B   0  0  0  0  0  0  0  0  0  0  0  0
    2.9427    0.7705    1.8764 O   0  0  0  0  0  0  0  0  0  0  0  0
    3.3115    2.0474    2.4181 C   0  0  0  0  0  0  0  0  0  0  0  0
    4.5637    1.9045    3.2816 C   0  0  0  0  0  0  0  0  0  0  0  0
    4.4399    1.1250    4.0258 H   0  0  0  0  0  0  0  0  0  0  0  0
    5.4053    1.6370    2.6477 H   0  0  0  0  0  0  0  0  0  0  0  0
    4.7848    2.8470    3.7752 H   0  0  0  0  0  0  0  0  0  0  0  0
    3.6127    2.9567    1.2210 C   0  0  0  0  0  0  0  0  0  0  0  0
    3.8903    3.9574    1.5384 H   0  0  0  0  0  0  0  0  0  0  0  0
    4.4342    2.5236    0.6548 H   0  0  0  0  0  0  0  0  0  0  0  0
    2.7403    2.9864    0.5733 H   0  0  0  0  0  0  0  0  0  0  0  0
    2.0198    2.4764    3.1937 C   0  0  0  0  0  0  0  0  0  0  0  0
    1.0048    1.6650    2.5874 O   0  0  0  0  0  0  0  0  0  0  0  0
    1.6418    3.9492    3.0478 C   0  0  0  0  0  0  0  0  0  0  0  0
    1.4152    4.1844    2.0133 H   0  0  0  0  0  0  0  0  0  0  0  0
    0.7558    4.1499    3.6453 H   0  0  0  0  0  0  0  0  0  0  0  0
    2.4521    4.5817    3.4000 H   0  0  0  0  0  0  0  0  0  0  0  0
    2.0627    2.1103    4.6828 C   0  0  0  0  0  0  0  0  0  0  0  0
    2.2876    1.0541    4.7993 H   0  0  0  0  0  0  0  0  0  0  0  0
    2.7980    2.7092    5.2113 H   0  0  0  0  0  0  0  0  0  0  0  0
    1.0815    2.2921    5.1150 H   0  0  0  0  0  0  0  0  0  0  0  0
    2.2782   -1.3309    0.1741 B   0  0  0  0  0  0  0  0  0  0  0  0
    3.0863   -2.3158    0.7027 O   0  0  0  0  0  0  0  0  0  0  0  0
    4.3827   -2.2798    0.0927 C   0  0  0  0  0  0  0  0  0  0  0  0
    5.3133   -1.5850    1.0927 C   0  0  0  0  0  0  0  0  0  0  0  0
    4.8950   -0.6150    1.3457 H   0  0  0  0  0  0  0  0  0  0  0  0
    5.3485   -2.1826    2.0001 H   0  0  0  0  0  0  0  0  0  0  0  0
    6.3192   -1.4808    0.6980 H   0  0  0  0  0  0  0  0  0  0  0  0
    4.8721   -3.7081   -0.1470 C   0  0  0  0  0  0  0  0  0  0  0  0
    4.9836   -4.2045    0.8134 H   0  0  0  0  0  0  0  0  0  0  0  0
    5.8344   -3.6945   -0.6509 H   0  0  0  0  0  0  0  0  0  0  0  0
    4.1616   -4.2765   -0.7377 H   0  0  0  0  0  0  0  0  0  0  0  0
    4.1322   -1.4348   -1.2066 C   0  0  0  0  0  0  0  0  0  0  0  0
    2.8840   -0.7809   -0.9301 O   0  0  0  0  0  0  0  0  0  0  0  0
    5.1955   -0.3765   -1.4956 C   0  0  0  0  0  0  0  0  0  0  0  0
    6.1708   -0.8413   -1.6097 H   0  0  0  0  0  0  0  0  0  0  0  0
    4.9420    0.1403   -2.4177 H   0  0  0  0  0  0  0  0  0  0  0  0
    5.2258    0.3545   -0.6953 H   0  0  0  0  0  0  0  0  0  0  0  0
    3.9257   -2.2944   -2.4610 C   0  0  0  0  0  0  0  0  0  0  0  0
    3.1369   -3.0220   -2.2920 H   0  0  0  0  0  0  0  0  0  0  0  0
    3.6145   -1.6477   -3.2780 H   0  0  0  0  0  0  0  0  0  0  0  0
    4.8432   -2.8023   -2.7424 H   0  0  0  0  0  0  0  0  0  0  0  0
   -3.3272   -3.7284   -2.8590 H   0  0  0  0  0  0  0  0  0  0  0  0
   -5.0682    1.7460    0.9876 H   0  0  0  0  0  0  0  0  0  0  0  0
    0.2359   -1.6814    2.9603 C   0  0  0  0  0  0  0  0  0  0  0  0
   -1.0542   -2.0581    3.3279 C   0  0  0  0  0  0  0  0  0  0  0  0
    1.1898   -1.5324    3.9664 C   0  0  0  0  0  0  0  0  0  0  0  0
   -1.3845   -2.1786    4.6664 C   0  0  0  0  0  0  0  0  0  0  0  0
   -1.8126   -2.2599    2.5860 H   0  0  0  0  0  0  0  0  0  0  0  0
    0.8465   -1.6656    5.3000 C   0  0  0  0  0  0  0  0  0  0  0  0
    2.2089   -1.3137    3.6875 H   0  0  0  0  0  0  0  0  0  0  0  0
   -0.4538   -1.9781    5.6688 C   0  0  0  0  0  0  0  0  0  0  0  0
   -3.0207   -2.6094    5.0970 Cl  0  0  0  0  0  0  0  0  0  0  0  0
    1.5928   -1.5345    6.0700 H   0  0  0  0  0  0  0  0  0  0  0  0
   -0.7321   -2.0794    6.7058 H   0  0  0  0  0  0  0  0  0  0  0  0
  1  2  4  0  0  0  0
  2  3  4  0  0  0  0
  3  4  4  0  0  0  0
  4  5  4  0  0  0  0
  1  6  4  0  0  0  0
  5  6  4  0  0  0  0
  6  7  1  0  0  0  0
  5  8  1  0  0  0  0
  3  9  1  0  0  0  0
  2 10  1  0  0  0  0
 10 11  4  0  0  0  0
 11 12  4  0  0  0  0
 12 13  4  0  0  0  0
 13 14  4  0  0  0  0
 10 15  4  0  0  0  0
 14 15  4  0  0  0  0
 15 16  1  0  0  0  0
 13 17  1  0  0  0  0
 12 18  1  0  0  0  0
  1 19  1  0  0  0  0
 11 19  1  0  0  0  0
 19 20  1  0  0  0  0
 19 21  1  0  0  0  0
 21 22  1  0  0  0  0
 22 23  1  0  0  0  0
 23 24  1  0  0  0  0
 24 25  1  0  0  0  0
 24 26  1  0  0  0  0
 24 27  1  0  0  0  0
 23 28  1  0  0  0  0
 28 29  1  0  0  0  0
 28 30  1  0  0  0  0
 28 31  1  0  0  0  0
 23 32  1  0  0  0  0
 21 33  1  0  0  0  0
 32 33  1  0  0  0  0
 32 34  1  0  0  0  0
 34 35  1  0  0  0  0
 34 36  1  0  0  0  0
 34 37  1  0  0  0  0
 32 38  1  0  0  0  0
 38 39  1  0  0  0  0
 38 40  1  0  0  0  0
 38 41  1  0  0  0  0
 19 42  1  0  0  0  0
 42 43  1  0  0  0  0
 43 44  1  0  0  0  0
 44 45  1  0  0  0  0
 45 46  1  0  0  0  0
 45 47  1  0  0  0  0
 45 48  1  0  0  0  0
 44 49  1  0  0  0  0
 49 50  1  0  0  0  0
 49 51  1  0  0  0  0
 49 52  1  0  0  0  0
 44 53  1  0  0  0  0
 42 54  1  0  0  0  0
 53 54  1  0  0  0  0
 53 55  1  0  0  0  0
 55 56  1  0  0  0  0
 55 57  1  0  0  0  0
 55 58  1  0  0  0  0
 53 59  1  0  0  0  0
 59 60  1  0  0  0  0
 59 61  1  0  0  0  0
 59 62  1  0  0  0  0
 19 63  1  0  0  0  0
 63 64  1  0  0  0  0
 64 65  1  0  0  0  0
 65 66  1  0  0  0  0
 66 67  1  0  0  0  0
 66 68  1  0  0  0  0
 66 69  1  0  0  0  0
 65 70  1  0  0  0  0
 70 71  1  0  0  0  0
 70 72  1  0  0  0  0
 70 73  1  0  0  0  0
 65 74  1  0  0  0  0
 63 75  1  0  0  0  0
 74 75  1  0  0  0  0
 74 76  1  0  0  0  0
 76 77  1  0  0  0  0
 76 78  1  0  0  0  0
 76 79  1  0  0  0  0
 74 80  1  0  0  0  0
 80 81  1  0  0  0  0
 80 82  1  0  0  0  0
 80 83  1  0  0  0  0
  4 84  1  0  0  0  0
 14 85  1  0  0  0  0
 19 86  1  0  0  0  0
 20 86  1  0  0  0  0
 86 87  4  0  0  0  0
 86 88  4  0  0  0  0
 87 89  4  0  0  0  0
 87 90  1  0  0  0  0
 88 91  4  0  0  0  0
 88 92  1  0  0  0  0
 89 93  4  0  0  0  0
 91 93  4  0  0  0  0
 89 94  1  0  0  0  0
 91 95  1  0  0  0  0
 93 96  1  0  0  0  0
M  END
