
  xtb     10082107263D
 xtb: 6.4.0 (f63f532)
 94101  0     0  0            999 V2000
   -0.9150   -2.0562   -0.3513 N   0  0  0  0  0  0  0  0  0  0  0  0
   -2.1865   -1.6339   -0.4687 C   0  0  0  0  0  0  0  0  0  0  0  0
   -3.1043   -2.3293   -1.2667 C   0  0  0  0  0  0  0  0  0  0  0  0
   -2.6971   -3.4441   -1.9669 C   0  0  0  0  0  0  0  0  0  0  0  0
   -1.3713   -3.8544   -1.8543 C   0  0  0  0  0  0  0  0  0  0  0  0
   -0.5312   -3.1316   -1.0327 C   0  0  0  0  0  0  0  0  0  0  0  0
    0.5020   -3.4209   -0.9012 H   0  0  0  0  0  0  0  0  0  0  0  0
   -1.0075   -4.7187   -2.3856 H   0  0  0  0  0  0  0  0  0  0  0  0
   -4.1298   -2.0058   -1.3317 H   0  0  0  0  0  0  0  0  0  0  0  0
   -2.5410   -0.4307    0.2758 C   0  0  0  0  0  0  0  0  0  0  0  0
   -1.6059    0.0585    1.1174 N   0  0  0  0  0  0  0  0  0  0  0  0
   -1.8951    1.1477    1.8264 C   0  0  0  0  0  0  0  0  0  0  0  0
   -3.0987    1.8172    1.7388 C   0  0  0  0  0  0  0  0  0  0  0  0
   -4.0612    1.3418    0.8531 C   0  0  0  0  0  0  0  0  0  0  0  0
   -3.7745    0.2115    0.1179 C   0  0  0  0  0  0  0  0  0  0  0  0
   -4.5013   -0.1646   -0.5825 H   0  0  0  0  0  0  0  0  0  0  0  0
   -3.2806    2.6896    2.3450 H   0  0  0  0  0  0  0  0  0  0  0  0
   -1.1104    1.4930    2.4821 H   0  0  0  0  0  0  0  0  0  0  0  0
    0.4215   -0.8165    0.9133 Ir  0  0  0  0  0  0  0  0  0  0  0  0
    0.8726   -2.2303    1.5405 H   0  0  0  0  0  0  0  0  0  0  0  0
    0.4155    0.6110   -0.6055 B   0  0  0  0  0  0  0  0  0  0  0  0
   -0.2147    0.3193   -1.7989 O   0  0  0  0  0  0  0  0  0  0  0  0
   -0.2675    1.4895   -2.6242 C   0  0  0  0  0  0  0  0  0  0  0  0
    0.0143    1.1058   -4.0746 C   0  0  0  0  0  0  0  0  0  0  0  0
    0.9311    0.5303   -4.1471 H   0  0  0  0  0  0  0  0  0  0  0  0
    0.0923    1.9986   -4.6896 H   0  0  0  0  0  0  0  0  0  0  0  0
   -0.8026    0.4926   -4.4475 H   0  0  0  0  0  0  0  0  0  0  0  0
   -1.6917    2.0520   -2.5151 C   0  0  0  0  0  0  0  0  0  0  0  0
   -1.8194    2.9209   -3.1536 H   0  0  0  0  0  0  0  0  0  0  0  0
   -2.3952    1.2803   -2.8210 H   0  0  0  0  0  0  0  0  0  0  0  0
   -1.9117    2.3185   -1.4831 H   0  0  0  0  0  0  0  0  0  0  0  0
    0.8040    2.4197   -1.9654 C   0  0  0  0  0  0  0  0  0  0  0  0
    0.8854    1.9024   -0.6288 O   0  0  0  0  0  0  0  0  0  0  0  0
    2.1948    2.2461   -2.5874 C   0  0  0  0  0  0  0  0  0  0  0  0
    2.4803    1.1985   -2.5318 H   0  0  0  0  0  0  0  0  0  0  0  0
    2.2175    2.5970   -3.6150 H   0  0  0  0  0  0  0  0  0  0  0  0
    2.9115    2.8168   -2.0016 H   0  0  0  0  0  0  0  0  0  0  0  0
    0.4401    3.9025   -1.9310 C   0  0  0  0  0  0  0  0  0  0  0  0
   -0.4498    4.0772   -1.3343 H   0  0  0  0  0  0  0  0  0  0  0  0
    1.2610    4.4598   -1.4862 H   0  0  0  0  0  0  0  0  0  0  0  0
    0.2765    4.2681   -2.9414 H   0  0  0  0  0  0  0  0  0  0  0  0
    1.5672    0.6333    1.8877 B   0  0  0  0  0  0  0  0  0  0  0  0
    2.9351    0.7563    1.9177 O   0  0  0  0  0  0  0  0  0  0  0  0
    3.3024    2.0306    2.4688 C   0  0  0  0  0  0  0  0  0  0  0  0
    4.5419    1.8787    3.3489 C   0  0  0  0  0  0  0  0  0  0  0  0
    4.4018    1.1045    4.0960 H   0  0  0  0  0  0  0  0  0  0  0  0
    5.3884    1.5989    2.7271 H   0  0  0  0  0  0  0  0  0  0  0  0
    4.7661    2.8212    3.8409 H   0  0  0  0  0  0  0  0  0  0  0  0
    3.6264    2.9397    1.2775 C   0  0  0  0  0  0  0  0  0  0  0  0
    3.8991    3.9397    1.6008 H   0  0  0  0  0  0  0  0  0  0  0  0
    4.4582    2.5060    0.7270 H   0  0  0  0  0  0  0  0  0  0  0  0
    2.7662    2.9710    0.6137 H   0  0  0  0  0  0  0  0  0  0  0  0
    2.0022    2.4653    3.2281 C   0  0  0  0  0  0  0  0  0  0  0  0
    0.9923    1.6487    2.6176 O   0  0  0  0  0  0  0  0  0  0  0  0
    1.6235    3.9360    3.0644 C   0  0  0  0  0  0  0  0  0  0  0  0
    1.4088    4.1611    2.0251 H   0  0  0  0  0  0  0  0  0  0  0  0
    0.7303    4.1402    3.6497 H   0  0  0  0  0  0  0  0  0  0  0  0
    2.4284    4.5728    3.4208 H   0  0  0  0  0  0  0  0  0  0  0  0
    2.0278    2.1141    4.7211 C   0  0  0  0  0  0  0  0  0  0  0  0
    2.2582    1.0607    4.8551 H   0  0  0  0  0  0  0  0  0  0  0  0
    2.7530    2.7225    5.2526 H   0  0  0  0  0  0  0  0  0  0  0  0
    1.0403    2.2944    5.1398 H   0  0  0  0  0  0  0  0  0  0  0  0
    2.2782   -1.3309    0.1741 B   0  0  0  0  0  0  0  0  0  0  0  0
    3.0918   -2.2999    0.7222 O   0  0  0  0  0  0  0  0  0  0  0  0
    4.3809   -2.2819    0.0935 C   0  0  0  0  0  0  0  0  0  0  0  0
    5.3243   -1.5545    1.0575 C   0  0  0  0  0  0  0  0  0  0  0  0
    4.9081   -0.5777    1.2873 H   0  0  0  0  0  0  0  0  0  0  0  0
    5.3757   -2.1230    1.9828 H   0  0  0  0  0  0  0  0  0  0  0  0
    6.3235   -1.4607    0.6441 H   0  0  0  0  0  0  0  0  0  0  0  0
    4.8683   -3.7165   -0.1081 C   0  0  0  0  0  0  0  0  0  0  0  0
    5.0008   -4.1808    0.8656 H   0  0  0  0  0  0  0  0  0  0  0  0
    5.8201   -3.7176   -0.6315 H   0  0  0  0  0  0  0  0  0  0  0  0
    4.1475   -4.3055   -0.6652 H   0  0  0  0  0  0  0  0  0  0  0  0
    4.1107   -1.4786   -1.2276 C   0  0  0  0  0  0  0  0  0  0  0  0
    2.8697   -0.8092   -0.9492 O   0  0  0  0  0  0  0  0  0  0  0  0
    5.1738   -0.4370   -1.5710 C   0  0  0  0  0  0  0  0  0  0  0  0
    6.1450   -0.9112   -1.6814 H   0  0  0  0  0  0  0  0  0  0  0  0
    4.9103    0.0460   -2.5085 H   0  0  0  0  0  0  0  0  0  0  0  0
    5.2202    0.3237   -0.7996 H   0  0  0  0  0  0  0  0  0  0  0  0
    3.8741   -2.3781   -2.4480 C   0  0  0  0  0  0  0  0  0  0  0  0
    3.0903   -3.1005   -2.2374 H   0  0  0  0  0  0  0  0  0  0  0  0
    3.5428   -1.7578   -3.2773 H   0  0  0  0  0  0  0  0  0  0  0  0
    4.7848   -2.8950   -2.7348 H   0  0  0  0  0  0  0  0  0  0  0  0
   -3.3932   -3.9877   -2.5871 H   0  0  0  0  0  0  0  0  0  0  0  0
   -5.0091    1.8455    0.7411 H   0  0  0  0  0  0  0  0  0  0  0  0
    0.2359   -1.6814    2.9603 C   0  0  0  0  0  0  0  0  0  0  0  0
   -1.0523   -2.0415    3.3845 C   0  0  0  0  0  0  0  0  0  0  0  0
    1.1660   -1.5572    3.9882 C   0  0  0  0  0  0  0  0  0  0  0  0
   -1.4037   -2.1601    4.6497 N   0  0  0  0  0  0  0  0  0  0  0  0
   -1.8530   -2.2478    2.6857 H   0  0  0  0  0  0  0  0  0  0  0  0
    0.7197   -1.6994    5.2973 C   0  0  0  0  0  0  0  0  0  0  0  0
    2.2033   -1.3551    3.7714 H   0  0  0  0  0  0  0  0  0  0  0  0
   -0.5368   -1.9742    5.6053 N   0  0  0  0  0  0  0  0  0  0  0  0
    1.3846   -1.5951    6.1448 H   0  0  0  0  0  0  0  0  0  0  0  0
  1  2  4  0  0  0  0
  2  3  4  0  0  0  0
  3  4  4  0  0  0  0
  4  5  4  0  0  0  0
  1  6  4  0  0  0  0
  5  6  4  0  0  0  0
  6  7  1  0  0  0  0
  5  8  1  0  0  0  0
  3  9  1  0  0  0  0
  2 10  1  0  0  0  0
 10 11  4  0  0  0  0
 11 12  4  0  0  0  0
 12 13  4  0  0  0  0
 13 14  4  0  0  0  0
 10 15  4  0  0  0  0
 14 15  4  0  0  0  0
 15 16  1  0  0  0  0
 13 17  1  0  0  0  0
 12 18  1  0  0  0  0
  1 19  1  0  0  0  0
 11 19  1  0  0  0  0
 19 20  1  0  0  0  0
 19 21  1  0  0  0  0
 21 22  1  0  0  0  0
 22 23  1  0  0  0  0
 23 24  1  0  0  0  0
 24 25  1  0  0  0  0
 24 26  1  0  0  0  0
 24 27  1  0  0  0  0
 23 28  1  0  0  0  0
 28 29  1  0  0  0  0
 28 30  1  0  0  0  0
 28 31  1  0  0  0  0
 23 32  1  0  0  0  0
 21 33  1  0  0  0  0
 32 33  1  0  0  0  0
 32 34  1  0  0  0  0
 34 35  1  0  0  0  0
 34 36  1  0  0  0  0
 34 37  1  0  0  0  0
 32 38  1  0  0  0  0
 38 39  1  0  0  0  0
 38 40  1  0  0  0  0
 38 41  1  0  0  0  0
 19 42  1  0  0  0  0
 42 43  1  0  0  0  0
 43 44  1  0  0  0  0
 44 45  1  0  0  0  0
 45 46  1  0  0  0  0
 45 47  1  0  0  0  0
 45 48  1  0  0  0  0
 44 49  1  0  0  0  0
 49 50  1  0  0  0  0
 49 51  1  0  0  0  0
 49 52  1  0  0  0  0
 44 53  1  0  0  0  0
 42 54  1  0  0  0  0
 53 54  1  0  0  0  0
 53 55  1  0  0  0  0
 55 56  1  0  0  0  0
 55 57  1  0  0  0  0
 55 58  1  0  0  0  0
 53 59  1  0  0  0  0
 59 60  1  0  0  0  0
 59 61  1  0  0  0  0
 59 62  1  0  0  0  0
 19 63  1  0  0  0  0
 63 64  1  0  0  0  0
 64 65  1  0  0  0  0
 65 66  1  0  0  0  0
 66 67  1  0  0  0  0
 66 68  1  0  0  0  0
 66 69  1  0  0  0  0
 65 70  1  0  0  0  0
 70 71  1  0  0  0  0
 70 72  1  0  0  0  0
 70 73  1  0  0  0  0
 65 74  1  0  0  0  0
 63 75  1  0  0  0  0
 74 75  1  0  0  0  0
 74 76  1  0  0  0  0
 76 77  1  0  0  0  0
 76 78  1  0  0  0  0
 76 79  1  0  0  0  0
 74 80  1  0  0  0  0
 80 81  1  0  0  0  0
 80 82  1  0  0  0  0
 80 83  1  0  0  0  0
  4 84  1  0  0  0  0
 14 85  1  0  0  0  0
 19 86  1  0  0  0  0
 20 86  1  0  0  0  0
 86 87  4  0  0  0  0
 86 88  4  0  0  0  0
 87 89  4  0  0  0  0
 87 90  1  0  0  0  0
 88 91  4  0  0  0  0
 88 92  1  0  0  0  0
 89 93  4  0  0  0  0
 91 93  4  0  0  0  0
 91 94  1  0  0  0  0
M  END
