
  xtb     01142214283D
 xtb: 6.4.1 (1a32961)
 35 37  0     0  0            999 V2000
    1.0744   -0.7453    1.0872 C   0  0  0  0  0  0  0  0  0  0  0  0
    2.1850   -0.2987    0.4065 C   0  0  0  0  0  0  0  0  0  0  0  0
    2.0688    0.4234   -0.7853 C   0  0  0  0  0  0  0  0  0  0  0  0
    0.8371    0.7213   -1.3328 C   0  0  0  0  0  0  0  0  0  0  0  0
   -0.2834    0.2718   -0.6479 C   0  0  0  0  0  0  0  0  0  0  0  0
   -1.5804    0.4404   -0.9887 O   0  0  0  0  0  0  0  0  0  0  0  0
   -2.3356   -0.1767   -0.0235 C   0  0  0  0  0  0  0  0  0  0  0  0
   -3.8862   -0.1628   -0.1264 B   0  0  0  0  0  0  0  0  0  0  0  0
   -4.5908    0.4588   -1.1101 O   0  0  0  0  0  0  0  0  0  0  0  0
   -5.9895    0.3846   -0.7935 C   0  0  0  0  0  0  0  0  0  0  0  0
   -6.4019    1.7700   -0.2810 C   0  0  0  0  0  0  0  0  0  0  0  0
   -6.7749    0.0662   -2.0638 C   0  0  0  0  0  0  0  0  0  0  0  0
   -6.0441   -0.7270    0.3192 C   0  0  0  0  0  0  0  0  0  0  0  0
   -6.9646   -0.4179    1.4977 C   0  0  0  0  0  0  0  0  0  0  0  0
   -6.3871   -2.1158   -0.2338 C   0  0  0  0  0  0  0  0  0  0  0  0
   -4.6855   -0.7897    0.7833 O   0  0  0  0  0  0  0  0  0  0  0  0
   -1.5299   -0.7341    0.9290 C   0  0  0  0  0  0  0  0  0  0  0  0
   -0.1836   -0.4599    0.5542 C   0  0  0  0  0  0  0  0  0  0  0  0
    1.1651   -1.3025    2.0068 H   0  0  0  0  0  0  0  0  0  0  0  0
    3.1701   -0.5076    0.7959 H   0  0  0  0  0  0  0  0  0  0  0  0
    2.9645    0.7541   -1.2887 H   0  0  0  0  0  0  0  0  0  0  0  0
    0.7382    1.2779   -2.2507 H   0  0  0  0  0  0  0  0  0  0  0  0
   -6.1779    2.5036   -1.0519 H   0  0  0  0  0  0  0  0  0  0  0  0
   -5.8307    2.0312    0.6065 H   0  0  0  0  0  0  0  0  0  0  0  0
   -7.4636    1.8008   -0.0588 H   0  0  0  0  0  0  0  0  0  0  0  0
   -6.6704    0.8967   -2.7572 H   0  0  0  0  0  0  0  0  0  0  0  0
   -7.8263   -0.0671   -1.8276 H   0  0  0  0  0  0  0  0  0  0  0  0
   -6.3937   -0.8263   -2.5489 H   0  0  0  0  0  0  0  0  0  0  0  0
   -7.9867   -0.3018    1.1499 H   0  0  0  0  0  0  0  0  0  0  0  0
   -6.6520    0.4816    2.0177 H   0  0  0  0  0  0  0  0  0  0  0  0
   -6.9218   -1.2456    2.2009 H   0  0  0  0  0  0  0  0  0  0  0  0
   -7.4173   -2.1550   -0.5724 H   0  0  0  0  0  0  0  0  0  0  0  0
   -6.2447   -2.8471    0.5583 H   0  0  0  0  0  0  0  0  0  0  0  0
   -5.7194   -2.3731   -1.0521 H   0  0  0  0  0  0  0  0  0  0  0  0
   -1.8684   -1.2731    1.7898 H   0  0  0  0  0  0  0  0  0  0  0  0
  1  2  2  0  0  0  0
  2  3  4  0  0  0  0
  3  4  4  0  0  0  0
  4  5  4  0  0  0  0
  5  6  1  0  0  0  0
  6  7  1  0  0  0  0
  7  8  1  0  0  0  0
  8  9  1  0  0  0  0
  9 10  1  0  0  0  0
 10 11  1  0  0  0  0
 10 12  1  0  0  0  0
 10 13  1  0  0  0  0
 13 14  1  0  0  0  0
 13 15  1  0  0  0  0
  8 16  1  0  0  0  0
 13 16  1  0  0  0  0
  7 17  2  0  0  0  0
  1 18  4  0  0  0  0
  5 18  4  0  0  0  0
 17 18  4  0  0  0  0
  1 19  1  0  0  0  0
  2 20  1  0  0  0  0
  3 21  1  0  0  0  0
  4 22  1  0  0  0  0
 11 23  1  0  0  0  0
 11 24  1  0  0  0  0
 11 25  1  0  0  0  0
 12 26  1  0  0  0  0
 12 27  1  0  0  0  0
 12 28  1  0  0  0  0
 14 29  1  0  0  0  0
 14 30  1  0  0  0  0
 14 31  1  0  0  0  0
 15 32  1  0  0  0  0
 15 33  1  0  0  0  0
 15 34  1  0  0  0  0
 17 35  1  0  0  0  0
M  END
