
  xtb     01142214183D
 xtb: 6.4.1 (1a32961)
 99107  0     0  0            999 V2000
   -0.9306   -2.0137   -0.3621 N   0  0  0  0  0  0  0  0  0  0  0  0
   -2.1823   -1.5412   -0.5195 C   0  0  0  0  0  0  0  0  0  0  0  0
   -3.0781   -2.1589   -1.4028 C   0  0  0  0  0  0  0  0  0  0  0  0
   -2.6761   -3.2544   -2.1340 C   0  0  0  0  0  0  0  0  0  0  0  0
   -1.3745   -3.7238   -1.9697 C   0  0  0  0  0  0  0  0  0  0  0  0
   -0.5528   -3.0713   -1.0754 C   0  0  0  0  0  0  0  0  0  0  0  0
    0.4620   -3.4044   -0.9093 H   0  0  0  0  0  0  0  0  0  0  0  0
   -1.0158   -4.5772   -2.5216 H   0  0  0  0  0  0  0  0  0  0  0  0
   -4.0828   -1.7858   -1.5148 H   0  0  0  0  0  0  0  0  0  0  0  0
   -2.5313   -0.3659    0.2664 C   0  0  0  0  0  0  0  0  0  0  0  0
   -1.5837    0.0977    1.1107 N   0  0  0  0  0  0  0  0  0  0  0  0
   -1.8602    1.1678    1.8538 C   0  0  0  0  0  0  0  0  0  0  0  0
   -3.0634    1.8401    1.8042 C   0  0  0  0  0  0  0  0  0  0  0  0
   -4.0442    1.3857    0.9252 C   0  0  0  0  0  0  0  0  0  0  0  0
   -3.7703    0.2779    0.1534 C   0  0  0  0  0  0  0  0  0  0  0  0
   -4.5144   -0.0844   -0.5363 H   0  0  0  0  0  0  0  0  0  0  0  0
   -3.2353    2.6962    2.4365 H   0  0  0  0  0  0  0  0  0  0  0  0
   -1.0662    1.4875    2.5112 H   0  0  0  0  0  0  0  0  0  0  0  0
    0.4215   -0.8165    0.9133 Ir  0  0  0  0  0  0  0  0  0  0  0  0
    0.8726   -2.2303    1.5405 H   0  0  0  0  0  0  0  0  0  0  0  0
    0.3937    0.6245   -0.5948 B   0  0  0  0  0  0  0  0  0  0  0  0
   -0.1991    0.3292   -1.8083 O   0  0  0  0  0  0  0  0  0  0  0  0
   -0.3031    1.5142   -2.6054 C   0  0  0  0  0  0  0  0  0  0  0  0
    0.0175    1.1840   -4.0609 C   0  0  0  0  0  0  0  0  0  0  0  0
    0.9602    0.6521   -4.1337 H   0  0  0  0  0  0  0  0  0  0  0  0
    0.0643    2.0963   -4.6502 H   0  0  0  0  0  0  0  0  0  0  0  0
   -0.7654    0.5455   -4.4633 H   0  0  0  0  0  0  0  0  0  0  0  0
   -1.7567    1.9989   -2.5055 C   0  0  0  0  0  0  0  0  0  0  0  0
   -1.9228    2.8704   -3.1318 H   0  0  0  0  0  0  0  0  0  0  0  0
   -2.4144    1.1959   -2.8326 H   0  0  0  0  0  0  0  0  0  0  0  0
   -2.0034    2.2370   -1.4726 H   0  0  0  0  0  0  0  0  0  0  0  0
    0.7072    2.4826   -1.9077 C   0  0  0  0  0  0  0  0  0  0  0  0
    0.7859    1.9445   -0.5803 O   0  0  0  0  0  0  0  0  0  0  0  0
    2.1157    2.3871   -2.5066 C   0  0  0  0  0  0  0  0  0  0  0  0
    2.4496    1.3529   -2.4655 H   0  0  0  0  0  0  0  0  0  0  0  0
    2.1390    2.7576   -3.5274 H   0  0  0  0  0  0  0  0  0  0  0  0
    2.7950    2.9801   -1.8990 H   0  0  0  0  0  0  0  0  0  0  0  0
    0.2707    3.9453   -1.8557 C   0  0  0  0  0  0  0  0  0  0  0  0
   -0.6380    4.0663   -1.2739 H   0  0  0  0  0  0  0  0  0  0  0  0
    1.0545    4.5347   -1.3860 H   0  0  0  0  0  0  0  0  0  0  0  0
    0.1081    4.3197   -2.8632 H   0  0  0  0  0  0  0  0  0  0  0  0
    1.5832    0.6395    1.8672 B   0  0  0  0  0  0  0  0  0  0  0  0
    2.9211    0.9016    1.7177 O   0  0  0  0  0  0  0  0  0  0  0  0
    3.2763    2.1267    2.3733 C   0  0  0  0  0  0  0  0  0  0  0  0
    4.5895    1.9333    3.1322 C   0  0  0  0  0  0  0  0  0  0  0  0
    4.5320    1.0748    3.7929 H   0  0  0  0  0  0  0  0  0  0  0  0
    5.3880    1.7544    2.4168 H   0  0  0  0  0  0  0  0  0  0  0  0
    4.8282    2.8243    3.7061 H   0  0  0  0  0  0  0  0  0  0  0  0
    3.4773    3.1691    1.2671 C   0  0  0  0  0  0  0  0  0  0  0  0
    3.7182    4.1455    1.6766 H   0  0  0  0  0  0  0  0  0  0  0  0
    4.2948    2.8407    0.6293 H   0  0  0  0  0  0  0  0  0  0  0  0
    2.5784    3.2199    0.6588 H   0  0  0  0  0  0  0  0  0  0  0  0
    2.0285    2.4194    3.2815 C   0  0  0  0  0  0  0  0  0  0  0  0
    1.0294    1.5368    2.7537 O   0  0  0  0  0  0  0  0  0  0  0  0
    1.5043    3.8542    3.2086 C   0  0  0  0  0  0  0  0  0  0  0  0
    1.1870    4.0972    2.1999 H   0  0  0  0  0  0  0  0  0  0  0  0
    0.6450    3.9489    3.8683 H   0  0  0  0  0  0  0  0  0  0  0  0
    2.2707    4.5533    3.5315 H   0  0  0  0  0  0  0  0  0  0  0  0
    2.2372    2.0445    4.7540 C   0  0  0  0  0  0  0  0  0  0  0  0
    2.5574    1.0111    4.8426 H   0  0  0  0  0  0  0  0  0  0  0  0
    2.9689    2.6958    5.2214 H   0  0  0  0  0  0  0  0  0  0  0  0
    1.2888    2.1454    5.2768 H   0  0  0  0  0  0  0  0  0  0  0  0
    2.2782   -1.3309    0.1741 B   0  0  0  0  0  0  0  0  0  0  0  0
    3.1350   -2.2500    0.7400 O   0  0  0  0  0  0  0  0  0  0  0  0
    4.4037   -2.2263    0.0730 C   0  0  0  0  0  0  0  0  0  0  0  0
    5.3541   -1.4265    0.9693 C   0  0  0  0  0  0  0  0  0  0  0  0
    4.9226   -0.4472    1.1538 H   0  0  0  0  0  0  0  0  0  0  0  0
    5.4361   -1.9380    1.9248 H   0  0  0  0  0  0  0  0  0  0  0  0
    6.3405   -1.3370    0.5253 H   0  0  0  0  0  0  0  0  0  0  0  0
    4.9269   -3.6547   -0.0746 C   0  0  0  0  0  0  0  0  0  0  0  0
    5.1077   -4.0631    0.9160 H   0  0  0  0  0  0  0  0  0  0  0  0
    5.8590   -3.6555   -0.6326 H   0  0  0  0  0  0  0  0  0  0  0  0
    4.2048   -4.2918   -0.5742 H   0  0  0  0  0  0  0  0  0  0  0  0
    4.0712   -1.4967   -1.2765 C   0  0  0  0  0  0  0  0  0  0  0  0
    2.8221   -0.8468   -0.9921 O   0  0  0  0  0  0  0  0  0  0  0  0
    5.0945   -0.4463   -1.7045 C   0  0  0  0  0  0  0  0  0  0  0  0
    6.0751   -0.8994   -1.8206 H   0  0  0  0  0  0  0  0  0  0  0  0
    4.7901   -0.0193   -2.6569 H   0  0  0  0  0  0  0  0  0  0  0  0
    5.1416    0.3534   -0.9735 H   0  0  0  0  0  0  0  0  0  0  0  0
    3.8234   -2.4623   -2.4433 C   0  0  0  0  0  0  0  0  0  0  0  0
    3.0670   -3.1937   -2.1723 H   0  0  0  0  0  0  0  0  0  0  0  0
    3.4500   -1.8939   -3.2918 H   0  0  0  0  0  0  0  0  0  0  0  0
    4.7392   -2.9691   -2.7319 H   0  0  0  0  0  0  0  0  0  0  0  0
   -3.3557   -3.7373   -2.8196 H   0  0  0  0  0  0  0  0  0  0  0  0
   -4.9967    1.8881    0.8489 H   0  0  0  0  0  0  0  0  0  0  0  0
    0.2359   -1.6814    2.9603 C   0  0  0  0  0  0  0  0  0  0  0  0
   -1.0688   -1.9318    3.3611 C   0  0  0  0  0  0  0  0  0  0  0  0
    1.2024   -1.6832    3.9667 C   0  0  0  0  0  0  0  0  0  0  0  0
   -1.4168   -2.0521    4.7081 C   0  0  0  0  0  0  0  0  0  0  0  0
   -1.8539   -2.0382    2.6258 H   0  0  0  0  0  0  0  0  0  0  0  0
    2.9248   -1.5778    3.7414 S   0  0  0  0  0  0  0  0  0  0  0  0
    0.8752   -1.8196    5.3320 C   0  0  0  0  0  0  0  0  0  0  0  0
   -0.4636   -1.9834    5.6971 C   0  0  0  0  0  0  0  0  0  0  0  0
   -2.4542   -2.2114    4.9689 H   0  0  0  0  0  0  0  0  0  0  0  0
    3.1748   -1.6989    5.4592 C   0  0  0  0  0  0  0  0  0  0  0  0
    2.0310   -1.8118    6.1675 C   0  0  0  0  0  0  0  0  0  0  0  0
   -0.7292   -2.0802    6.7394 H   0  0  0  0  0  0  0  0  0  0  0  0
    4.1774   -1.6809    5.8411 H   0  0  0  0  0  0  0  0  0  0  0  0
    1.9844   -1.8982    7.2385 H   0  0  0  0  0  0  0  0  0  0  0  0
  1  2  4  0  0  0  0
  2  3  4  0  0  0  0
  3  4  4  0  0  0  0
  4  5  4  0  0  0  0
  1  6  4  0  0  0  0
  5  6  4  0  0  0  0
  6  7  1  0  0  0  0
  5  8  1  0  0  0  0
  3  9  1  0  0  0  0
  2 10  1  0  0  0  0
 10 11  4  0  0  0  0
 11 12  4  0  0  0  0
 12 13  4  0  0  0  0
 13 14  4  0  0  0  0
 10 15  4  0  0  0  0
 14 15  4  0  0  0  0
 15 16  1  0  0  0  0
 13 17  1  0  0  0  0
 12 18  1  0  0  0  0
  1 19  1  0  0  0  0
 11 19  1  0  0  0  0
 19 20  1  0  0  0  0
 19 21  1  0  0  0  0
 21 22  1  0  0  0  0
 22 23  1  0  0  0  0
 23 24  1  0  0  0  0
 24 25  1  0  0  0  0
 24 26  1  0  0  0  0
 24 27  1  0  0  0  0
 23 28  1  0  0  0  0
 28 29  1  0  0  0  0
 28 30  1  0  0  0  0
 28 31  1  0  0  0  0
 23 32  1  0  0  0  0
 21 33  1  0  0  0  0
 32 33  1  0  0  0  0
 32 34  1  0  0  0  0
 34 35  1  0  0  0  0
 34 36  1  0  0  0  0
 34 37  1  0  0  0  0
 32 38  1  0  0  0  0
 38 39  1  0  0  0  0
 38 40  1  0  0  0  0
 38 41  1  0  0  0  0
 19 42  1  0  0  0  0
 42 43  1  0  0  0  0
 43 44  1  0  0  0  0
 44 45  1  0  0  0  0
 45 46  1  0  0  0  0
 45 47  1  0  0  0  0
 45 48  1  0  0  0  0
 44 49  1  0  0  0  0
 49 50  1  0  0  0  0
 49 51  1  0  0  0  0
 49 52  1  0  0  0  0
 44 53  1  0  0  0  0
 42 54  1  0  0  0  0
 53 54  1  0  0  0  0
 53 55  1  0  0  0  0
 55 56  1  0  0  0  0
 55 57  1  0  0  0  0
 55 58  1  0  0  0  0
 53 59  1  0  0  0  0
 59 60  1  0  0  0  0
 59 61  1  0  0  0  0
 59 62  1  0  0  0  0
 19 63  1  0  0  0  0
 63 64  1  0  0  0  0
 64 65  1  0  0  0  0
 65 66  1  0  0  0  0
 66 67  1  0  0  0  0
 66 68  1  0  0  0  0
 66 69  1  0  0  0  0
 65 70  1  0  0  0  0
 70 71  1  0  0  0  0
 70 72  1  0  0  0  0
 70 73  1  0  0  0  0
 65 74  1  0  0  0  0
 63 75  1  0  0  0  0
 74 75  1  0  0  0  0
 74 76  1  0  0  0  0
 76 77  1  0  0  0  0
 76 78  1  0  0  0  0
 76 79  1  0  0  0  0
 74 80  1  0  0  0  0
 80 81  1  0  0  0  0
 80 82  1  0  0  0  0
 80 83  1  0  0  0  0
  4 84  1  0  0  0  0
 14 85  1  0  0  0  0
 19 86  1  0  0  0  0
 20 86  1  0  0  0  0
 86 87  4  0  0  0  0
 86 88  4  0  0  0  0
 87 89  4  0  0  0  0
 87 90  1  0  0  0  0
 88 91  1  0  0  0  0
 88 92  4  0  0  0  0
 89 93  4  0  0  0  0
 92 93  4  0  0  0  0
 89 94  1  0  0  0  0
 91 95  1  0  0  0  0
 92 96  1  0  0  0  0
 95 96  2  0  0  0  0
 93 97  1  0  0  0  0
 95 98  1  0  0  0  0
 96 99  1  0  0  0  0
M  END
