   11

N          0.73859       -0.02158       -0.00088
C          2.17777        0.01938       -0.01862
C         -0.09997        1.05391        0.00737
N         -1.35938        0.67772        0.00583
C         -1.32690       -0.69326        0.00047
C         -0.03016       -1.15068        0.00156
H          2.51652        1.05820        0.00340
H          2.52467       -0.46548       -0.93473
H          2.55096       -0.51245        0.86017
H          0.24901        2.07839        0.01240
H         -2.23855       -1.27682       -0.00394
