
  xtb     01142213453D
 xtb: 6.4.1 (1a32961)
 94101  0     0  0            999 V2000
   -0.9833   -2.0161   -0.3408 N   0  0  0  0  0  0  0  0  0  0  0  0
   -2.2094   -1.4903   -0.5001 C   0  0  0  0  0  0  0  0  0  0  0  0
   -3.0708   -1.9577   -1.4978 C   0  0  0  0  0  0  0  0  0  0  0  0
   -2.6658   -2.9847   -2.3246 C   0  0  0  0  0  0  0  0  0  0  0  0
   -1.4005   -3.5303   -2.1377 C   0  0  0  0  0  0  0  0  0  0  0  0
   -0.6030   -3.0075   -1.1394 C   0  0  0  0  0  0  0  0  0  0  0  0
    0.3902   -3.3945   -0.9611 H   0  0  0  0  0  0  0  0  0  0  0  0
   -1.0430   -4.3363   -2.7574 H   0  0  0  0  0  0  0  0  0  0  0  0
   -4.0418   -1.5126   -1.6383 H   0  0  0  0  0  0  0  0  0  0  0  0
   -2.5709   -0.4027    0.4074 C   0  0  0  0  0  0  0  0  0  0  0  0
   -1.5874    0.0839    1.1882 N   0  0  0  0  0  0  0  0  0  0  0  0
   -1.8651    1.0788    2.0260 C   0  0  0  0  0  0  0  0  0  0  0  0
   -3.1211    1.6415    2.1472 C   0  0  0  0  0  0  0  0  0  0  0  0
   -4.1498    1.1437    1.3554 C   0  0  0  0  0  0  0  0  0  0  0  0
   -3.8681    0.1157    0.4794 C   0  0  0  0  0  0  0  0  0  0  0  0
   -4.6550   -0.2923   -0.1323 H   0  0  0  0  0  0  0  0  0  0  0  0
   -3.2930    2.4407    2.8495 H   0  0  0  0  0  0  0  0  0  0  0  0
   -1.0328    1.4307    2.6172 H   0  0  0  0  0  0  0  0  0  0  0  0
    0.4215   -0.8165    0.9133 Ir  0  0  0  0  0  0  0  0  0  0  0  0
    0.8726   -2.2303    1.5405 H   0  0  0  0  0  0  0  0  0  0  0  0
    0.4106    0.5394   -0.6644 B   0  0  0  0  0  0  0  0  0  0  0  0
   -0.1377    0.1858   -1.8812 O   0  0  0  0  0  0  0  0  0  0  0  0
   -0.2396    1.3393   -2.7256 C   0  0  0  0  0  0  0  0  0  0  0  0
    0.1333    0.9610   -4.1562 C   0  0  0  0  0  0  0  0  0  0  0  0
    1.0928    0.4556   -4.1804 H   0  0  0  0  0  0  0  0  0  0  0  0
    0.1705    1.8494   -4.7811 H   0  0  0  0  0  0  0  0  0  0  0  0
   -0.6183    0.2827   -4.5527 H   0  0  0  0  0  0  0  0  0  0  0  0
   -1.7056    1.7941   -2.6865 C   0  0  0  0  0  0  0  0  0  0  0  0
   -1.8686    2.6478   -3.3374 H   0  0  0  0  0  0  0  0  0  0  0  0
   -2.3340    0.9699   -3.0177 H   0  0  0  0  0  0  0  0  0  0  0  0
   -1.9903    2.0485   -1.6674 H   0  0  0  0  0  0  0  0  0  0  0  0
    0.7294    2.3529   -2.0327 C   0  0  0  0  0  0  0  0  0  0  0  0
    0.7749    1.8649   -0.6830 O   0  0  0  0  0  0  0  0  0  0  0  0
    2.1582    2.2620   -2.5815 C   0  0  0  0  0  0  0  0  0  0  0  0
    2.5091    1.2370   -2.4884 H   0  0  0  0  0  0  0  0  0  0  0  0
    2.2085    2.5941   -3.6144 H   0  0  0  0  0  0  0  0  0  0  0  0
    2.8063    2.8901   -1.9753 H   0  0  0  0  0  0  0  0  0  0  0  0
    0.2648    3.8075   -2.0481 C   0  0  0  0  0  0  0  0  0  0  0  0
   -0.6693    3.9308   -1.5092 H   0  0  0  0  0  0  0  0  0  0  0  0
    1.0180    4.4264   -1.5666 H   0  0  0  0  0  0  0  0  0  0  0  0
    0.1389    4.1450   -3.0736 H   0  0  0  0  0  0  0  0  0  0  0  0
    1.6195    0.6380    1.8267 B   0  0  0  0  0  0  0  0  0  0  0  0
    2.9324    0.9335    1.6076 O   0  0  0  0  0  0  0  0  0  0  0  0
    3.3064    2.1484    2.2750 C   0  0  0  0  0  0  0  0  0  0  0  0
    4.6231    1.9216    3.0194 C   0  0  0  0  0  0  0  0  0  0  0  0
    4.5645    1.0278    3.6329 H   0  0  0  0  0  0  0  0  0  0  0  0
    5.4200    1.7777    2.2943 H   0  0  0  0  0  0  0  0  0  0  0  0
    4.8654    2.7811    3.6375 H   0  0  0  0  0  0  0  0  0  0  0  0
    3.5139    3.1988    1.1778 C   0  0  0  0  0  0  0  0  0  0  0  0
    3.7639    4.1682    1.5977 H   0  0  0  0  0  0  0  0  0  0  0  0
    4.3290    2.8695    0.5377 H   0  0  0  0  0  0  0  0  0  0  0  0
    2.6166    3.2652    0.5690 H   0  0  0  0  0  0  0  0  0  0  0  0
    2.0712    2.4459    3.2031 C   0  0  0  0  0  0  0  0  0  0  0  0
    1.0835    1.5093    2.7475 O   0  0  0  0  0  0  0  0  0  0  0  0
    1.4925    3.8561    3.0663 C   0  0  0  0  0  0  0  0  0  0  0  0
    1.1430    4.0301    2.0539 H   0  0  0  0  0  0  0  0  0  0  0  0
    0.6463    3.9561    3.7419 H   0  0  0  0  0  0  0  0  0  0  0  0
    2.2390    4.5992    3.3306 H   0  0  0  0  0  0  0  0  0  0  0  0
    2.3255    2.1607    4.6877 C   0  0  0  0  0  0  0  0  0  0  0  0
    2.7033    1.1522    4.8233 H   0  0  0  0  0  0  0  0  0  0  0  0
    3.0314    2.8729    5.1034 H   0  0  0  0  0  0  0  0  0  0  0  0
    1.3831    2.2450    5.2244 H   0  0  0  0  0  0  0  0  0  0  0  0
    2.2782   -1.3309    0.1741 B   0  0  0  0  0  0  0  0  0  0  0  0
    3.0919   -2.2736    0.7629 O   0  0  0  0  0  0  0  0  0  0  0  0
    4.3869   -2.2649    0.1451 C   0  0  0  0  0  0  0  0  0  0  0  0
    5.3075   -1.4697    1.0743 C   0  0  0  0  0  0  0  0  0  0  0  0
    4.8985   -0.4732    1.2091 H   0  0  0  0  0  0  0  0  0  0  0  0
    5.3123   -1.9510    2.0490 H   0  0  0  0  0  0  0  0  0  0  0  0
    6.3216   -1.4239    0.6897 H   0  0  0  0  0  0  0  0  0  0  0  0
    4.9009   -3.6989    0.0231 C   0  0  0  0  0  0  0  0  0  0  0  0
    5.0457   -4.1009    1.0224 H   0  0  0  0  0  0  0  0  0  0  0  0
    5.8510   -3.7117   -0.5033 H   0  0  0  0  0  0  0  0  0  0  0  0
    4.1895   -4.3329   -0.4957 H   0  0  0  0  0  0  0  0  0  0  0  0
    4.1116   -1.5361   -1.2166 C   0  0  0  0  0  0  0  0  0  0  0  0
    2.8673   -0.8572   -0.9724 O   0  0  0  0  0  0  0  0  0  0  0  0
    5.1704   -0.5117   -1.6186 C   0  0  0  0  0  0  0  0  0  0  0  0
    6.1437   -0.9877   -1.6971 H   0  0  0  0  0  0  0  0  0  0  0  0
    4.9074   -0.0859   -2.5837 H   0  0  0  0  0  0  0  0  0  0  0  0
    5.2115    0.2917   -0.8917 H   0  0  0  0  0  0  0  0  0  0  0  0
    3.8765   -2.5041   -2.3837 C   0  0  0  0  0  0  0  0  0  0  0  0
    3.0980   -3.2177   -2.1282 H   0  0  0  0  0  0  0  0  0  0  0  0
    3.5403   -1.9345   -3.2465 H   0  0  0  0  0  0  0  0  0  0  0  0
    4.7898   -3.0314   -2.6412 H   0  0  0  0  0  0  0  0  0  0  0  0
   -3.3180   -3.3530   -3.1017 H   0  0  0  0  0  0  0  0  0  0  0  0
   -5.1483    1.5475    1.4250 H   0  0  0  0  0  0  0  0  0  0  0  0
    0.2359   -1.6814    2.9603 C   0  0  0  0  0  0  0  0  0  0  0  0
   -1.3560   -2.1666    3.4431 S   0  0  0  0  0  0  0  0  0  0  0  0
    1.0625   -1.6731    4.0681 C   0  0  0  0  0  0  0  0  0  0  0  0
   -0.9114   -2.2702    5.1134 C   0  0  0  0  0  0  0  0  0  0  0  0
    0.3960   -1.9817    5.2951 C   0  0  0  0  0  0  0  0  0  0  0  0
    2.4367   -1.4124    4.0519 C   0  0  0  0  0  0  0  0  0  0  0  0
   -1.6480   -2.5356    5.8446 H   0  0  0  0  0  0  0  0  0  0  0  0
    0.8963   -1.9855    6.2478 H   0  0  0  0  0  0  0  0  0  0  0  0
    3.5680   -1.2355    4.1698 N   0  0  0  0  0  0  0  0  0  0  0  0
  1  2  4  0  0  0  0
  2  3  4  0  0  0  0
  3  4  4  0  0  0  0
  4  5  4  0  0  0  0
  1  6  4  0  0  0  0
  5  6  4  0  0  0  0
  6  7  1  0  0  0  0
  5  8  1  0  0  0  0
  3  9  1  0  0  0  0
  2 10  1  0  0  0  0
 10 11  4  0  0  0  0
 11 12  4  0  0  0  0
 12 13  4  0  0  0  0
 13 14  4  0  0  0  0
 10 15  4  0  0  0  0
 14 15  4  0  0  0  0
 15 16  1  0  0  0  0
 13 17  1  0  0  0  0
 12 18  1  0  0  0  0
  1 19  1  0  0  0  0
 11 19  1  0  0  0  0
 19 20  1  0  0  0  0
 19 21  1  0  0  0  0
 21 22  1  0  0  0  0
 22 23  1  0  0  0  0
 23 24  1  0  0  0  0
 24 25  1  0  0  0  0
 24 26  1  0  0  0  0
 24 27  1  0  0  0  0
 23 28  1  0  0  0  0
 28 29  1  0  0  0  0
 28 30  1  0  0  0  0
 28 31  1  0  0  0  0
 23 32  1  0  0  0  0
 21 33  1  0  0  0  0
 32 33  1  0  0  0  0
 32 34  1  0  0  0  0
 34 35  1  0  0  0  0
 34 36  1  0  0  0  0
 34 37  1  0  0  0  0
 32 38  1  0  0  0  0
 38 39  1  0  0  0  0
 38 40  1  0  0  0  0
 38 41  1  0  0  0  0
 19 42  1  0  0  0  0
 42 43  1  0  0  0  0
 43 44  1  0  0  0  0
 44 45  1  0  0  0  0
 45 46  1  0  0  0  0
 45 47  1  0  0  0  0
 45 48  1  0  0  0  0
 44 49  1  0  0  0  0
 49 50  1  0  0  0  0
 49 51  1  0  0  0  0
 49 52  1  0  0  0  0
 44 53  1  0  0  0  0
 42 54  1  0  0  0  0
 53 54  1  0  0  0  0
 53 55  1  0  0  0  0
 55 56  1  0  0  0  0
 55 57  1  0  0  0  0
 55 58  1  0  0  0  0
 53 59  1  0  0  0  0
 59 60  1  0  0  0  0
 59 61  1  0  0  0  0
 59 62  1  0  0  0  0
 19 63  1  0  0  0  0
 63 64  1  0  0  0  0
 64 65  1  0  0  0  0
 65 66  1  0  0  0  0
 66 67  1  0  0  0  0
 66 68  1  0  0  0  0
 66 69  1  0  0  0  0
 65 70  1  0  0  0  0
 70 71  1  0  0  0  0
 70 72  1  0  0  0  0
 70 73  1  0  0  0  0
 65 74  1  0  0  0  0
 63 75  1  0  0  0  0
 74 75  1  0  0  0  0
 74 76  1  0  0  0  0
 76 77  1  0  0  0  0
 76 78  1  0  0  0  0
 76 79  1  0  0  0  0
 74 80  1  0  0  0  0
 80 81  1  0  0  0  0
 80 82  1  0  0  0  0
 80 83  1  0  0  0  0
  4 84  1  0  0  0  0
 14 85  1  0  0  0  0
 19 86  1  0  0  0  0
 20 86  1  0  0  0  0
 86 87  1  0  0  0  0
 86 88  4  0  0  0  0
 87 89  1  0  0  0  0
 88 90  1  0  0  0  0
 89 90  2  0  0  0  0
 88 91  1  0  0  0  0
 89 92  1  0  0  0  0
 90 93  1  0  0  0  0
 91 94  3  0  0  0  0
M  END
