
  xtb     01142213203D
 xtb: 6.4.1 (1a32961)
 15 16  0     0  0            999 V2000
    0.9815   -1.4568   -0.0282 C   0  0  0  0  0  0  0  0  0  0  0  0
    2.1140   -0.6674   -0.0755 C   0  0  0  0  0  0  0  0  0  0  0  0
    3.8441   -1.4916   -0.1233 Br  0  0  0  0  0  0  0  0  0  0  0  0
    2.0396    0.7281   -0.0899 C   0  0  0  0  0  0  0  0  0  0  0  0
    0.8987    1.3863   -0.0599 N   0  0  0  0  0  0  0  0  0  0  0  0
   -0.1999    0.6433   -0.0142 C   0  0  0  0  0  0  0  0  0  0  0  0
   -1.4768    1.0928    0.0229 N   0  0  0  0  0  0  0  0  0  0  0  0
   -2.3195    0.0158    0.0640 C   0  0  0  0  0  0  0  0  0  0  0  0
   -1.6081   -1.1470    0.0542 C   0  0  0  0  0  0  0  0  0  0  0  0
   -0.2361   -0.7829    0.0041 C   0  0  0  0  0  0  0  0  0  0  0  0
    1.0413   -2.5344   -0.0164 H   0  0  0  0  0  0  0  0  0  0  0  0
    2.9368    1.3291   -0.1278 H   0  0  0  0  0  0  0  0  0  0  0  0
   -1.7488    2.0620    0.0191 H   0  0  0  0  0  0  0  0  0  0  0  0
   -3.3822    0.1554    0.0987 H   0  0  0  0  0  0  0  0  0  0  0  0
   -2.0014   -2.1430    0.0803 H   0  0  0  0  0  0  0  0  0  0  0  0
  1  2  4  0  0  0  0
  2  3  1  0  0  0  0
  2  4  4  0  0  0  0
  4  5  4  0  0  0  0
  5  6  4  0  0  0  0
  6  7  4  0  0  0  0
  7  8  4  0  0  0  0
  8  9  2  0  0  0  0
  1 10  4  0  0  0  0
  6 10  1  0  0  0  0
  9 10  4  0  0  0  0
  1 11  1  0  0  0  0
  4 12  1  0  0  0  0
  7 13  1  0  0  0  0
  8 14  1  0  0  0  0
  9 15  1  0  0  0  0
M  END
