
  xtb     01142215133D
 xtb: 6.4.1 (1a32961)
103111  0     0  0            999 V2000
   -0.8843   -2.0129   -0.3994 N   0  0  0  0  0  0  0  0  0  0  0  0
   -2.1400   -1.5515   -0.5696 C   0  0  0  0  0  0  0  0  0  0  0  0
   -2.9999   -2.1353   -1.5100 C   0  0  0  0  0  0  0  0  0  0  0  0
   -2.5614   -3.1867   -2.2827 C   0  0  0  0  0  0  0  0  0  0  0  0
   -1.2578   -3.6471   -2.1022 C   0  0  0  0  0  0  0  0  0  0  0  0
   -0.4720   -3.0295   -1.1536 C   0  0  0  0  0  0  0  0  0  0  0  0
    0.5421   -3.3582   -0.9743 H   0  0  0  0  0  0  0  0  0  0  0  0
   -0.8716   -4.4677   -2.6849 H   0  0  0  0  0  0  0  0  0  0  0  0
   -4.0051   -1.7675   -1.6362 H   0  0  0  0  0  0  0  0  0  0  0  0
   -2.5274   -0.4264    0.2667 C   0  0  0  0  0  0  0  0  0  0  0  0
   -1.5924    0.0308    1.1301 N   0  0  0  0  0  0  0  0  0  0  0  0
   -1.9031    1.0569    1.9212 C   0  0  0  0  0  0  0  0  0  0  0  0
   -3.1283    1.6895    1.9038 C   0  0  0  0  0  0  0  0  0  0  0  0
   -4.0982    1.2395    1.0093 C   0  0  0  0  0  0  0  0  0  0  0  0
   -3.7900    0.1768    0.1893 C   0  0  0  0  0  0  0  0  0  0  0  0
   -4.5260   -0.1840   -0.5100 H   0  0  0  0  0  0  0  0  0  0  0  0
   -3.3262    2.5127    2.5712 H   0  0  0  0  0  0  0  0  0  0  0  0
   -1.1163    1.3754    2.5879 H   0  0  0  0  0  0  0  0  0  0  0  0
    0.4215   -0.8165    0.9133 Ir  0  0  0  0  0  0  0  0  0  0  0  0
    0.8726   -2.2303    1.5405 H   0  0  0  0  0  0  0  0  0  0  0  0
    0.4104    0.6361   -0.5836 B   0  0  0  0  0  0  0  0  0  0  0  0
   -0.2072    0.3604   -1.7915 O   0  0  0  0  0  0  0  0  0  0  0  0
   -0.3185    1.5551   -2.5704 C   0  0  0  0  0  0  0  0  0  0  0  0
   -0.0359    1.2419   -4.0377 C   0  0  0  0  0  0  0  0  0  0  0  0
    0.9024    0.7072   -4.1414 H   0  0  0  0  0  0  0  0  0  0  0  0
    0.0001    2.1612   -4.6167 H   0  0  0  0  0  0  0  0  0  0  0  0
   -0.8314    0.6114   -4.4281 H   0  0  0  0  0  0  0  0  0  0  0  0
   -1.7654    2.0503   -2.4295 C   0  0  0  0  0  0  0  0  0  0  0  0
   -1.9398    2.9327   -3.0382 H   0  0  0  0  0  0  0  0  0  0  0  0
   -2.4369    1.2571   -2.7529 H   0  0  0  0  0  0  0  0  0  0  0  0
   -1.9854    2.2733   -1.3871 H   0  0  0  0  0  0  0  0  0  0  0  0
    0.7165    2.5058   -1.8848 C   0  0  0  0  0  0  0  0  0  0  0  0
    0.8230    1.9504   -0.5676 O   0  0  0  0  0  0  0  0  0  0  0  0
    2.1100    2.4077   -2.5178 C   0  0  0  0  0  0  0  0  0  0  0  0
    2.4343    1.3698   -2.5033 H   0  0  0  0  0  0  0  0  0  0  0  0
    2.1150    2.7968   -3.5319 H   0  0  0  0  0  0  0  0  0  0  0  0
    2.8084    2.9822   -1.9136 H   0  0  0  0  0  0  0  0  0  0  0  0
    0.2934    3.9713   -1.8046 C   0  0  0  0  0  0  0  0  0  0  0  0
   -0.6007    4.0919   -1.2006 H   0  0  0  0  0  0  0  0  0  0  0  0
    1.0926    4.5480   -1.3451 H   0  0  0  0  0  0  0  0  0  0  0  0
    0.1111    4.3601   -2.8034 H   0  0  0  0  0  0  0  0  0  0  0  0
    1.5593    0.6291    1.9060 B   0  0  0  0  0  0  0  0  0  0  0  0
    2.9218    0.8053    1.8670 O   0  0  0  0  0  0  0  0  0  0  0  0
    3.2844    2.0446    2.4887 C   0  0  0  0  0  0  0  0  0  0  0  0
    4.5462    1.8484    3.3281 C   0  0  0  0  0  0  0  0  0  0  0  0
    4.4223    1.0252    4.0239 H   0  0  0  0  0  0  0  0  0  0  0  0
    5.3792    1.6146    2.6699 H   0  0  0  0  0  0  0  0  0  0  0  0
    4.7776    2.7585    3.8748 H   0  0  0  0  0  0  0  0  0  0  0  0
    3.5717    3.0339    1.3522 C   0  0  0  0  0  0  0  0  0  0  0  0
    3.8358    4.0160    1.7332 H   0  0  0  0  0  0  0  0  0  0  0  0
    4.3990    2.6501    0.7593 H   0  0  0  0  0  0  0  0  0  0  0  0
    2.6987    3.0947    0.7074 H   0  0  0  0  0  0  0  0  0  0  0  0
    2.0004    2.4121    3.3097 C   0  0  0  0  0  0  0  0  0  0  0  0
    0.9892    1.6004    2.7007 O   0  0  0  0  0  0  0  0  0  0  0  0
    1.5831    3.8802    3.2247 C   0  0  0  0  0  0  0  0  0  0  0  0
    1.3371    4.1502    2.2031 H   0  0  0  0  0  0  0  0  0  0  0  0
    0.7000    4.0342    3.8401 H   0  0  0  0  0  0  0  0  0  0  0  0
    2.3811    4.5196    3.5923 H   0  0  0  0  0  0  0  0  0  0  0  0
    2.0852    1.9975    4.7841 C   0  0  0  0  0  0  0  0  0  0  0  0
    2.3166    0.9384    4.8610 H   0  0  0  0  0  0  0  0  0  0  0  0
    2.8326    2.5807    5.3131 H   0  0  0  0  0  0  0  0  0  0  0  0
    1.1160    2.1626    5.2489 H   0  0  0  0  0  0  0  0  0  0  0  0
    2.2782   -1.3309    0.1741 B   0  0  0  0  0  0  0  0  0  0  0  0
    3.1426   -2.2631    0.7105 O   0  0  0  0  0  0  0  0  0  0  0  0
    4.4091   -2.2155    0.0431 C   0  0  0  0  0  0  0  0  0  0  0  0
    5.3580   -1.4344    0.9591 C   0  0  0  0  0  0  0  0  0  0  0  0
    4.9185   -0.4650    1.1770 H   0  0  0  0  0  0  0  0  0  0  0  0
    5.4563   -1.9772    1.8961 H   0  0  0  0  0  0  0  0  0  0  0  0
    6.3409   -1.3200    0.5124 H   0  0  0  0  0  0  0  0  0  0  0  0
    4.9415   -3.6363   -0.1429 C   0  0  0  0  0  0  0  0  0  0  0  0
    5.1236   -4.0719    0.8359 H   0  0  0  0  0  0  0  0  0  0  0  0
    5.8741   -3.6160   -0.6999 H   0  0  0  0  0  0  0  0  0  0  0  0
    4.2234   -4.2635   -0.6606 H   0  0  0  0  0  0  0  0  0  0  0  0
    4.0726   -1.4518   -1.2858 C   0  0  0  0  0  0  0  0  0  0  0  0
    2.8230   -0.8152   -0.9819 O   0  0  0  0  0  0  0  0  0  0  0  0
    5.0926   -0.3875   -1.6879 C   0  0  0  0  0  0  0  0  0  0  0  0
    6.0752   -0.8336   -1.8149 H   0  0  0  0  0  0  0  0  0  0  0  0
    4.7870    0.0615   -2.6298 H   0  0  0  0  0  0  0  0  0  0  0  0
    5.1367    0.3952   -0.9384 H   0  0  0  0  0  0  0  0  0  0  0  0
    3.8278   -2.3876   -2.4776 C   0  0  0  0  0  0  0  0  0  0  0  0
    3.0792   -3.1329   -2.2233 H   0  0  0  0  0  0  0  0  0  0  0  0
    3.4446   -1.7993   -3.3079 H   0  0  0  0  0  0  0  0  0  0  0  0
    4.7467   -2.8778   -2.7848 H   0  0  0  0  0  0  0  0  0  0  0  0
   -3.2133   -3.6429   -3.0122 H   0  0  0  0  0  0  0  0  0  0  0  0
   -5.0682    1.7109    0.9589 H   0  0  0  0  0  0  0  0  0  0  0  0
    0.2359   -1.6814    2.9603 C   0  0  0  0  0  0  0  0  0  0  0  0
   -0.9966   -1.9003    3.5123 C   0  0  0  0  0  0  0  0  0  0  0  0
    1.1571   -1.7219    4.0527 C   0  0  0  0  0  0  0  0  0  0  0  0
   -0.9151   -2.0213    4.8797 N   0  0  0  0  0  0  0  0  0  0  0  0
   -1.9571   -1.9815    3.0373 H   0  0  0  0  0  0  0  0  0  0  0  0
    2.5463   -1.6358    4.1357 C   0  0  0  0  0  0  0  0  0  0  0  0
    0.3981   -1.9150    5.2362 C   0  0  0  0  0  0  0  0  0  0  0  0
   -2.0175   -2.2057    5.7811 C   0  0  0  0  0  0  0  0  0  0  0  0
    3.1396   -1.7202    5.3766 C   0  0  0  0  0  0  0  0  0  0  0  0
    3.1162   -1.5040    3.2296 H   0  0  0  0  0  0  0  0  0  0  0  0
    1.0046   -1.9906    6.4862 C   0  0  0  0  0  0  0  0  0  0  0  0
   -2.1169   -1.3465    6.4497 H   0  0  0  0  0  0  0  0  0  0  0  0
   -1.8689   -3.1039    6.3853 H   0  0  0  0  0  0  0  0  0  0  0  0
   -2.9352   -2.3138    5.2063 H   0  0  0  0  0  0  0  0  0  0  0  0
    2.3781   -1.8887    6.5386 C   0  0  0  0  0  0  0  0  0  0  0  0
    4.2153   -1.6561    5.4666 H   0  0  0  0  0  0  0  0  0  0  0  0
    0.4233   -2.1290    7.3861 H   0  0  0  0  0  0  0  0  0  0  0  0
    2.8805   -1.9451    7.4940 H   0  0  0  0  0  0  0  0  0  0  0  0
  1  2  4  0  0  0  0
  2  3  4  0  0  0  0
  3  4  4  0  0  0  0
  4  5  4  0  0  0  0
  1  6  4  0  0  0  0
  5  6  4  0  0  0  0
  6  7  1  0  0  0  0
  5  8  1  0  0  0  0
  3  9  1  0  0  0  0
  2 10  1  0  0  0  0
 10 11  4  0  0  0  0
 11 12  4  0  0  0  0
 12 13  4  0  0  0  0
 13 14  4  0  0  0  0
 10 15  4  0  0  0  0
 14 15  4  0  0  0  0
 15 16  1  0  0  0  0
 13 17  1  0  0  0  0
 12 18  1  0  0  0  0
  1 19  1  0  0  0  0
 11 19  1  0  0  0  0
 19 20  1  0  0  0  0
 19 21  1  0  0  0  0
 21 22  1  0  0  0  0
 22 23  1  0  0  0  0
 23 24  1  0  0  0  0
 24 25  1  0  0  0  0
 24 26  1  0  0  0  0
 24 27  1  0  0  0  0
 23 28  1  0  0  0  0
 28 29  1  0  0  0  0
 28 30  1  0  0  0  0
 28 31  1  0  0  0  0
 23 32  1  0  0  0  0
 21 33  1  0  0  0  0
 32 33  1  0  0  0  0
 32 34  1  0  0  0  0
 34 35  1  0  0  0  0
 34 36  1  0  0  0  0
 34 37  1  0  0  0  0
 32 38  1  0  0  0  0
 38 39  1  0  0  0  0
 38 40  1  0  0  0  0
 38 41  1  0  0  0  0
 19 42  1  0  0  0  0
 42 43  1  0  0  0  0
 43 44  1  0  0  0  0
 44 45  1  0  0  0  0
 45 46  1  0  0  0  0
 45 47  1  0  0  0  0
 45 48  1  0  0  0  0
 44 49  1  0  0  0  0
 49 50  1  0  0  0  0
 49 51  1  0  0  0  0
 49 52  1  0  0  0  0
 44 53  1  0  0  0  0
 42 54  1  0  0  0  0
 53 54  1  0  0  0  0
 53 55  1  0  0  0  0
 55 56  1  0  0  0  0
 55 57  1  0  0  0  0
 55 58  1  0  0  0  0
 53 59  1  0  0  0  0
 59 60  1  0  0  0  0
 59 61  1  0  0  0  0
 59 62  1  0  0  0  0
 19 63  1  0  0  0  0
 63 64  1  0  0  0  0
 64 65  1  0  0  0  0
 65 66  1  0  0  0  0
 66 67  1  0  0  0  0
 66 68  1  0  0  0  0
 66 69  1  0  0  0  0
 65 70  1  0  0  0  0
 70 71  1  0  0  0  0
 70 72  1  0  0  0  0
 70 73  1  0  0  0  0
 65 74  1  0  0  0  0
 63 75  1  0  0  0  0
 74 75  1  0  0  0  0
 74 76  1  0  0  0  0
 76 77  1  0  0  0  0
 76 78  1  0  0  0  0
 76 79  1  0  0  0  0
 74 80  1  0  0  0  0
 80 81  1  0  0  0  0
 80 82  1  0  0  0  0
 80 83  1  0  0  0  0
  4 84  1  0  0  0  0
 14 85  1  0  0  0  0
 19 86  1  0  0  0  0
 20 86  1  0  0  0  0
 86 87  2  0  0  0  0
 86 88  1  0  0  0  0
 87 89  1  0  0  0  0
 87 90  1  0  0  0  0
 88 91  4  0  0  0  0
 88 92  4  0  0  0  0
 89 92  1  0  0  0  0
 89 93  1  0  0  0  0
 91 94  2  0  0  0  0
 91 95  1  0  0  0  0
 92 96  4  0  0  0  0
 93 97  1  0  0  0  0
 93 98  1  0  0  0  0
 93 99  1  0  0  0  0
 94100  4  0  0  0  0
 96100  4  0  0  0  0
 94101  1  0  0  0  0
 96102  1  0  0  0  0
100103  1  0  0  0  0
M  END
