
  xtb     01142215073D
 xtb: 6.4.1 (1a32961)
 14 14  0     0  0            999 V2000
   -0.3043   -1.0740    0.0072 C   0  0  0  0  0  0  0  0  0  0  0  0
   -0.8405   -2.4607    0.0114 C   0  0  0  0  0  0  0  0  0  0  0  0
   -1.1108    0.0104    0.0087 N   0  0  0  0  0  0  0  0  0  0  0  0
   -0.3508    1.1532    0.0039 C   0  0  0  0  0  0  0  0  0  0  0  0
   -0.8985    2.4331    0.0038 C   0  0  0  0  0  0  0  0  0  0  0  0
   -1.3442    3.4953    0.0040 N   0  0  0  0  0  0  0  0  0  0  0  0
    0.9827    0.7689   -0.0005 C   0  0  0  0  0  0  0  0  0  0  0  0
    1.0044   -0.6286    0.0015 C   0  0  0  0  0  0  0  0  0  0  0  0
   -1.9276   -2.4528    0.0124 H   0  0  0  0  0  0  0  0  0  0  0  0
   -0.4934   -2.9989    0.8921 H   0  0  0  0  0  0  0  0  0  0  0  0
   -0.4949   -3.0033   -0.8673 H   0  0  0  0  0  0  0  0  0  0  0  0
   -2.1181   -0.0079    0.0126 H   0  0  0  0  0  0  0  0  0  0  0  0
    1.8258    1.4317   -0.0049 H   0  0  0  0  0  0  0  0  0  0  0  0
    1.8802   -1.2466   -0.0011 H   0  0  0  0  0  0  0  0  0  0  0  0
  1  2  1  0  0  0  0
  1  3  4  0  0  0  0
  3  4  1  0  0  0  0
  4  5  1  0  0  0  0
  5  6  3  0  0  0  0
  4  7  4  0  0  0  0
  1  8  4  0  0  0  0
  7  8  4  0  0  0  0
  2  9  1  0  0  0  0
  2 10  1  0  0  0  0
  2 11  1  0  0  0  0
  3 12  1  0  0  0  0
  7 13  1  0  0  0  0
  8 14  1  0  0  0  0
M  END
