
  xtb     01142213303D
 xtb: 6.4.1 (1a32961)
 21 21  0     0  0            999 V2000
    1.4611   -0.2640    0.1646 C   0  0  0  0  0  0  0  0  0  0  0  0
    2.8691   -0.6218    0.4607 C   0  0  0  0  0  0  0  0  0  0  0  0
    3.5284   -0.0193    1.2889 O   0  0  0  0  0  0  0  0  0  0  0  0
    3.4207   -1.8286   -0.2569 C   0  0  0  0  0  0  0  0  0  0  0  0
    0.9836    1.0449   -0.0106 C   0  0  0  0  0  0  0  0  0  0  0  0
    1.7112    2.1733   -0.1970 O   0  0  0  0  0  0  0  0  0  0  0  0
    3.0917    2.1396   -0.4827 C   0  0  0  0  0  0  0  0  0  0  0  0
   -0.3999    1.2610   -0.0755 C   0  0  0  0  0  0  0  0  0  0  0  0
   -1.2939    0.2191    0.0021 C   0  0  0  0  0  0  0  0  0  0  0  0
   -0.8258   -1.0840    0.1208 C   0  0  0  0  0  0  0  0  0  0  0  0
    0.5296   -1.3117    0.1954 C   0  0  0  0  0  0  0  0  0  0  0  0
    2.9234   -1.9924   -1.2078 H   0  0  0  0  0  0  0  0  0  0  0  0
    3.2840   -2.7057    0.3744 H   0  0  0  0  0  0  0  0  0  0  0  0
    4.4909   -1.6970   -0.4008 H   0  0  0  0  0  0  0  0  0  0  0  0
    3.3199    3.1140   -0.9138 H   0  0  0  0  0  0  0  0  0  0  0  0
    3.3274    1.3503   -1.2035 H   0  0  0  0  0  0  0  0  0  0  0  0
    3.6883    1.9864    0.4210 H   0  0  0  0  0  0  0  0  0  0  0  0
   -0.7341    2.2795   -0.1957 H   0  0  0  0  0  0  0  0  0  0  0  0
   -2.3539    0.4156   -0.0446 H   0  0  0  0  0  0  0  0  0  0  0  0
   -1.5169   -1.9109    0.1644 H   0  0  0  0  0  0  0  0  0  0  0  0
    0.8906   -2.3200    0.3231 H   0  0  0  0  0  0  0  0  0  0  0  0
  1  2  1  0  0  0  0
  2  3  2  0  0  0  0
  2  4  1  0  0  0  0
  1  5  4  0  0  0  0
  5  6  1  0  0  0  0
  6  7  1  0  0  0  0
  5  8  4  0  0  0  0
  8  9  4  0  0  0  0
  9 10  4  0  0  0  0
  1 11  4  0  0  0  0
 10 11  4  0  0  0  0
  4 12  1  0  0  0  0
  4 13  1  0  0  0  0
  4 14  1  0  0  0  0
  7 15  1  0  0  0  0
  7 16  1  0  0  0  0
  7 17  1  0  0  0  0
  8 18  1  0  0  0  0
  9 19  1  0  0  0  0
 10 20  1  0  0  0  0
 11 21  1  0  0  0  0
M  END
