
  xtb     01142214453D
 xtb: 6.4.1 (1a32961)
118127  0     0  0            999 V2000
   -0.8087   -2.0803   -0.4745 N   0  0  0  0  0  0  0  0  0  0  0  0
   -2.0438   -1.6326   -0.7683 C   0  0  0  0  0  0  0  0  0  0  0  0
   -2.8425   -2.2877   -1.7152 C   0  0  0  0  0  0  0  0  0  0  0  0
   -2.3582   -3.3977   -2.3715 C   0  0  0  0  0  0  0  0  0  0  0  0
   -1.0744   -3.8411   -2.0663 C   0  0  0  0  0  0  0  0  0  0  0  0
   -0.3505   -3.1529   -1.1140 C   0  0  0  0  0  0  0  0  0  0  0  0
    0.6477   -3.4637   -0.8433 H   0  0  0  0  0  0  0  0  0  0  0  0
   -0.6538   -4.7059   -2.5531 H   0  0  0  0  0  0  0  0  0  0  0  0
   -3.8378   -1.9357   -1.9309 H   0  0  0  0  0  0  0  0  0  0  0  0
   -2.4900   -0.4412   -0.0575 C   0  0  0  0  0  0  0  0  0  0  0  0
   -1.6725    0.0244    0.9105 N   0  0  0  0  0  0  0  0  0  0  0  0
   -2.0503    1.1007    1.5968 C   0  0  0  0  0  0  0  0  0  0  0  0
   -3.2276    1.7810    1.3630 C   0  0  0  0  0  0  0  0  0  0  0  0
   -4.0642    1.3331    0.3440 C   0  0  0  0  0  0  0  0  0  0  0  0
   -3.6868    0.2160   -0.3696 C   0  0  0  0  0  0  0  0  0  0  0  0
   -4.3138   -0.1377   -1.1716 H   0  0  0  0  0  0  0  0  0  0  0  0
   -3.4889    2.6394    1.9604 H   0  0  0  0  0  0  0  0  0  0  0  0
   -1.3641    1.4175    2.3665 H   0  0  0  0  0  0  0  0  0  0  0  0
    0.4215   -0.8165    0.9133 Ir  0  0  0  0  0  0  0  0  0  0  0  0
    0.8726   -2.2303    1.5405 H   0  0  0  0  0  0  0  0  0  0  0  0
    0.4539    0.5852   -0.6244 B   0  0  0  0  0  0  0  0  0  0  0  0
    0.2968    0.2049   -1.9456 O   0  0  0  0  0  0  0  0  0  0  0  0
    0.0833    1.3594   -2.7677 C   0  0  0  0  0  0  0  0  0  0  0  0
    0.8392    1.1993   -4.0847 C   0  0  0  0  0  0  0  0  0  0  0  0
    1.8865    0.9804   -3.9067 H   0  0  0  0  0  0  0  0  0  0  0  0
    0.7517    2.1058   -4.6783 H   0  0  0  0  0  0  0  0  0  0  0  0
    0.4076    0.3711   -4.6422 H   0  0  0  0  0  0  0  0  0  0  0  0
   -1.4220    1.4335   -3.0608 C   0  0  0  0  0  0  0  0  0  0  0  0
   -1.6511    2.2583   -3.7292 H   0  0  0  0  0  0  0  0  0  0  0  0
   -1.7318    0.5008   -3.5278 H   0  0  0  0  0  0  0  0  0  0  0  0
   -1.9803    1.5476   -2.1340 H   0  0  0  0  0  0  0  0  0  0  0  0
    0.5794    2.5267   -1.8518 C   0  0  0  0  0  0  0  0  0  0  0  0
    0.4751    1.9596   -0.5389 O   0  0  0  0  0  0  0  0  0  0  0  0
    2.0590    2.8602   -2.0775 C   0  0  0  0  0  0  0  0  0  0  0  0
    2.6542    1.9624   -1.9301 H   0  0  0  0  0  0  0  0  0  0  0  0
    2.2246    3.2712   -3.0691 H   0  0  0  0  0  0  0  0  0  0  0  0
    2.3696    3.5905   -1.3348 H   0  0  0  0  0  0  0  0  0  0  0  0
   -0.2485    3.8079   -1.9307 C   0  0  0  0  0  0  0  0  0  0  0  0
   -1.2673    3.6396   -1.5953 H   0  0  0  0  0  0  0  0  0  0  0  0
    0.1992    4.5602   -1.2861 H   0  0  0  0  0  0  0  0  0  0  0  0
   -0.2597    4.1826   -2.9509 H   0  0  0  0  0  0  0  0  0  0  0  0
    1.3498    0.6976    2.0163 B   0  0  0  0  0  0  0  0  0  0  0  0
    2.6342    1.1619    1.9756 O   0  0  0  0  0  0  0  0  0  0  0  0
    2.7590    2.3595    2.7520 C   0  0  0  0  0  0  0  0  0  0  0  0
    4.0767    2.3322    3.5240 C   0  0  0  0  0  0  0  0  0  0  0  0
    4.1667    1.4216    4.1068 H   0  0  0  0  0  0  0  0  0  0  0  0
    4.8984    2.3597    2.8141 H   0  0  0  0  0  0  0  0  0  0  0  0
    4.1459    3.1961    4.1794 H   0  0  0  0  0  0  0  0  0  0  0  0
    2.7746    3.5266    1.7580 C   0  0  0  0  0  0  0  0  0  0  0  0
    2.8555    4.4829    2.2663 H   0  0  0  0  0  0  0  0  0  0  0  0
    3.6281    3.3991    1.0973 H   0  0  0  0  0  0  0  0  0  0  0  0
    1.8730    3.4910    1.1522 H   0  0  0  0  0  0  0  0  0  0  0  0
    1.4688    2.3361    3.6432 C   0  0  0  0  0  0  0  0  0  0  0  0
    0.6241    1.4108    2.9502 O   0  0  0  0  0  0  0  0  0  0  0  0
    0.7455    3.6769    3.7713 C   0  0  0  0  0  0  0  0  0  0  0  0
    0.4011    4.0247    2.8031 H   0  0  0  0  0  0  0  0  0  0  0  0
   -0.1202    3.5500    4.4171 H   0  0  0  0  0  0  0  0  0  0  0  0
    1.4051    4.4188    4.2129 H   0  0  0  0  0  0  0  0  0  0  0  0
    1.7126    1.7678    5.0469 C   0  0  0  0  0  0  0  0  0  0  0  0
    2.2165    0.8082    4.9802 H   0  0  0  0  0  0  0  0  0  0  0  0
    2.3032    2.4526    5.6479 H   0  0  0  0  0  0  0  0  0  0  0  0
    0.7509    1.6086    5.5302 H   0  0  0  0  0  0  0  0  0  0  0  0
    2.2782   -1.3309    0.1741 B   0  0  0  0  0  0  0  0  0  0  0  0
    2.5833   -2.6505   -0.1114 O   0  0  0  0  0  0  0  0  0  0  0  0
    3.8736   -2.7671   -0.7226 C   0  0  0  0  0  0  0  0  0  0  0  0
    4.7917   -3.4680    0.2864 C   0  0  0  0  0  0  0  0  0  0  0  0
    4.8305   -2.9096    1.2161 H   0  0  0  0  0  0  0  0  0  0  0  0
    4.3775   -4.4490    0.5063 H   0  0  0  0  0  0  0  0  0  0  0  0
    5.7923   -3.5895   -0.1161 H   0  0  0  0  0  0  0  0  0  0  0  0
    3.7487   -3.6505   -1.9661 C   0  0  0  0  0  0  0  0  0  0  0  0
    3.4451   -4.6474   -1.6563 H   0  0  0  0  0  0  0  0  0  0  0  0
    4.7037   -3.7203   -2.4785 H   0  0  0  0  0  0  0  0  0  0  0  0
    2.9971   -3.2624   -2.6458 H   0  0  0  0  0  0  0  0  0  0  0  0
    4.2658   -1.2705   -1.0110 C   0  0  0  0  0  0  0  0  0  0  0  0
    3.2831   -0.5218   -0.2816 O   0  0  0  0  0  0  0  0  0  0  0  0
    5.6589   -0.8689   -0.5262 C   0  0  0  0  0  0  0  0  0  0  0  0
    6.4202   -1.4594   -1.0279 H   0  0  0  0  0  0  0  0  0  0  0  0
    5.8183    0.1813   -0.7541 H   0  0  0  0  0  0  0  0  0  0  0  0
    5.7430   -0.9941    0.5474 H   0  0  0  0  0  0  0  0  0  0  0  0
    4.1181   -0.8745   -2.4858 C   0  0  0  0  0  0  0  0  0  0  0  0
    3.0928   -1.0334   -2.8096 H   0  0  0  0  0  0  0  0  0  0  0  0
    4.3417    0.1856   -2.5808 H   0  0  0  0  0  0  0  0  0  0  0  0
    4.8008   -1.4344   -3.1173 H   0  0  0  0  0  0  0  0  0  0  0  0
   -2.9636   -3.9104   -3.1036 H   0  0  0  0  0  0  0  0  0  0  0  0
   -4.9860    1.8466    0.1148 H   0  0  0  0  0  0  0  0  0  0  0  0
    0.2359   -1.6814    2.9603 C   0  0  0  0  0  0  0  0  0  0  0  0
   -1.1126   -1.9479    3.2092 C   0  0  0  0  0  0  0  0  0  0  0  0
    1.0880   -1.7576    4.0684 C   0  0  0  0  0  0  0  0  0  0  0  0
   -1.6135   -2.1457    4.4867 C   0  0  0  0  0  0  0  0  0  0  0  0
   -1.8111   -2.0118    2.3885 H   0  0  0  0  0  0  0  0  0  0  0  0
    0.5716   -1.9985    5.3619 C   0  0  0  0  0  0  0  0  0  0  0  0
    2.5239   -1.6773    4.2203 C   0  0  0  0  0  0  0  0  0  0  0  0
   -0.7806   -2.1672    5.5922 C   0  0  0  0  0  0  0  0  0  0  0  0
   -2.6732   -2.3082    4.6232 H   0  0  0  0  0  0  0  0  0  0  0  0
    1.6286   -2.0856    6.2903 N   0  0  0  0  0  0  0  0  0  0  0  0
    3.5480   -1.4434    3.3120 C   0  0  0  0  0  0  0  0  0  0  0  0
    2.8256   -1.8869    5.5835 C   0  0  0  0  0  0  0  0  0  0  0  0
   -1.1688   -2.3378    6.5814 H   0  0  0  0  0  0  0  0  0  0  0  0
    1.4607   -2.4090    7.6114 C   0  0  0  0  0  0  0  0  0  0  0  0
    4.8510   -1.4121    3.7748 C   0  0  0  0  0  0  0  0  0  0  0  0
    3.3063   -1.2558    2.2802 H   0  0  0  0  0  0  0  0  0  0  0  0
    4.1324   -1.8508    6.0399 C   0  0  0  0  0  0  0  0  0  0  0  0
    0.3807   -2.5043    8.1548 O   0  0  0  0  0  0  0  0  0  0  0  0
    2.6186   -2.6271    8.2409 O   0  0  0  0  0  0  0  0  0  0  0  0
    5.1391   -1.6122    5.1189 C   0  0  0  0  0  0  0  0  0  0  0  0
    5.6596   -1.2166    3.0866 H   0  0  0  0  0  0  0  0  0  0  0  0
    4.3698   -1.9998    7.0780 H   0  0  0  0  0  0  0  0  0  0  0  0
    2.5565   -3.0161    9.6309 C   0  0  0  0  0  0  0  0  0  0  0  0
    6.1632   -1.5774    5.4582 H   0  0  0  0  0  0  0  0  0  0  0  0
    3.7712   -3.8940    9.8985 C   0  0  0  0  0  0  0  0  0  0  0  0
    2.5305   -1.7730   10.5136 C   0  0  0  0  0  0  0  0  0  0  0  0
    1.6298   -3.5866    9.7746 H   0  0  0  0  0  0  0  0  0  0  0  0
    4.6832   -3.3196    9.7609 H   0  0  0  0  0  0  0  0  0  0  0  0
    3.7825   -4.7387    9.2145 H   0  0  0  0  0  0  0  0  0  0  0  0
    3.7326   -4.2636   10.9185 H   0  0  0  0  0  0  0  0  0  0  0  0
    3.4194   -1.1716   10.3391 H   0  0  0  0  0  0  0  0  0  0  0  0
    2.4964   -2.0694   11.5576 H   0  0  0  0  0  0  0  0  0  0  0  0
    1.6491   -1.1767   10.2888 H   0  0  0  0  0  0  0  0  0  0  0  0
  1  2  4  0  0  0  0
  2  3  4  0  0  0  0
  3  4  4  0  0  0  0
  4  5  4  0  0  0  0
  1  6  4  0  0  0  0
  5  6  4  0  0  0  0
  6  7  1  0  0  0  0
  5  8  1  0  0  0  0
  3  9  1  0  0  0  0
  2 10  1  0  0  0  0
 10 11  4  0  0  0  0
 11 12  4  0  0  0  0
 12 13  4  0  0  0  0
 13 14  4  0  0  0  0
 10 15  4  0  0  0  0
 14 15  4  0  0  0  0
 15 16  1  0  0  0  0
 13 17  1  0  0  0  0
 12 18  1  0  0  0  0
  1 19  1  0  0  0  0
 11 19  1  0  0  0  0
 19 20  1  0  0  0  0
 19 21  1  0  0  0  0
 21 22  1  0  0  0  0
 22 23  1  0  0  0  0
 23 24  1  0  0  0  0
 24 25  1  0  0  0  0
 24 26  1  0  0  0  0
 24 27  1  0  0  0  0
 23 28  1  0  0  0  0
 28 29  1  0  0  0  0
 28 30  1  0  0  0  0
 28 31  1  0  0  0  0
 23 32  1  0  0  0  0
 21 33  1  0  0  0  0
 32 33  1  0  0  0  0
 32 34  1  0  0  0  0
 34 35  1  0  0  0  0
 34 36  1  0  0  0  0
 34 37  1  0  0  0  0
 32 38  1  0  0  0  0
 38 39  1  0  0  0  0
 38 40  1  0  0  0  0
 38 41  1  0  0  0  0
 19 42  1  0  0  0  0
 42 43  1  0  0  0  0
 43 44  1  0  0  0  0
 44 45  1  0  0  0  0
 45 46  1  0  0  0  0
 45 47  1  0  0  0  0
 45 48  1  0  0  0  0
 44 49  1  0  0  0  0
 49 50  1  0  0  0  0
 49 51  1  0  0  0  0
 49 52  1  0  0  0  0
 44 53  1  0  0  0  0
 42 54  1  0  0  0  0
 53 54  1  0  0  0  0
 53 55  1  0  0  0  0
 55 56  1  0  0  0  0
 55 57  1  0  0  0  0
 55 58  1  0  0  0  0
 53 59  1  0  0  0  0
 59 60  1  0  0  0  0
 59 61  1  0  0  0  0
 59 62  1  0  0  0  0
 19 63  1  0  0  0  0
 63 64  1  0  0  0  0
 64 65  1  0  0  0  0
 65 66  1  0  0  0  0
 66 67  1  0  0  0  0
 66 68  1  0  0  0  0
 66 69  1  0  0  0  0
 65 70  1  0  0  0  0
 70 71  1  0  0  0  0
 70 72  1  0  0  0  0
 70 73  1  0  0  0  0
 65 74  1  0  0  0  0
 63 75  1  0  0  0  0
 74 75  1  0  0  0  0
 74 76  1  0  0  0  0
 76 77  1  0  0  0  0
 76 78  1  0  0  0  0
 76 79  1  0  0  0  0
 74 80  1  0  0  0  0
 80 81  1  0  0  0  0
 80 82  1  0  0  0  0
 80 83  1  0  0  0  0
  4 84  1  0  0  0  0
 14 85  1  0  0  0  0
 19 86  1  0  0  0  0
 20 86  1  0  0  0  0
 86 87  4  0  0  0  0
 86 88  4  0  0  0  0
 87 89  4  0  0  0  0
 87 90  1  0  0  0  0
 88 91  4  0  0  0  0
 88 92  1  0  0  0  0
 89 93  4  0  0  0  0
 91 93  4  0  0  0  0
 89 94  1  0  0  0  0
 91 95  1  0  0  0  0
 92 96  4  0  0  0  0
 92 97  4  0  0  0  0
 95 97  1  0  0  0  0
 93 98  1  0  0  0  0
 95 99  1  0  0  0  0
 96100  4  0  0  0  0
 96101  1  0  0  0  0
 97102  4  0  0  0  0
 99103  2  0  0  0  0
 99104  1  0  0  0  0
100105  4  0  0  0  0
102105  4  0  0  0  0
100106  1  0  0  0  0
102107  1  0  0  0  0
104108  1  0  0  0  0
105109  1  0  0  0  0
108110  1  0  0  0  0
108111  1  0  0  0  0
108112  1  0  0  0  0
110113  1  0  0  0  0
110114  1  0  0  0  0
110115  1  0  0  0  0
111116  1  0  0  0  0
111117  1  0  0  0  0
111118  1  0  0  0  0
M  END
