
  xtb     01142213083D
 xtb: 6.4.1 (1a32961)
 27 29  0     0  0            999 V2000
    0.7985    1.3692   -1.4224 C   0  0  0  0  0  0  0  0  0  0  0  0
   -0.3039    0.8733   -0.7536 C   0  0  0  0  0  0  0  0  0  0  0  0
   -0.1939    0.1200    0.4335 C   0  0  0  0  0  0  0  0  0  0  0  0
   -1.4620   -0.2141    0.8413 N   0  0  0  0  0  0  0  0  0  0  0  0
   -2.2583    0.3054   -0.0418 C   0  0  0  0  0  0  0  0  0  0  0  0
   -1.6267    0.9832   -1.0461 O   0  0  0  0  0  0  0  0  0  0  0  0
   -3.7008    0.2260   -0.0328 C   0  0  0  0  0  0  0  0  0  0  0  0
   -4.3506   -0.4390    1.0079 C   0  0  0  0  0  0  0  0  0  0  0  0
   -5.7286   -0.5137    1.0262 C   0  0  0  0  0  0  0  0  0  0  0  0
   -6.4915    0.0672    0.0175 C   0  0  0  0  0  0  0  0  0  0  0  0
   -7.9862   -0.0088    0.0318 C   0  0  0  0  0  0  0  0  0  0  0  0
   -5.8346    0.7282   -1.0185 C   0  0  0  0  0  0  0  0  0  0  0  0
   -4.4583    0.8109   -1.0496 C   0  0  0  0  0  0  0  0  0  0  0  0
    1.0547   -0.1533    0.9784 C   0  0  0  0  0  0  0  0  0  0  0  0
    2.1561    0.3429    0.3101 C   0  0  0  0  0  0  0  0  0  0  0  0
    2.0329    1.0878   -0.8637 C   0  0  0  0  0  0  0  0  0  0  0  0
    0.6947    1.9442   -2.3283 H   0  0  0  0  0  0  0  0  0  0  0  0
   -3.7545   -0.8859    1.7873 H   0  0  0  0  0  0  0  0  0  0  0  0
   -6.2218   -1.0295    1.8368 H   0  0  0  0  0  0  0  0  0  0  0  0
   -8.3416   -0.5394    0.9107 H   0  0  0  0  0  0  0  0  0  0  0  0
   -8.3447   -0.5245   -0.8580 H   0  0  0  0  0  0  0  0  0  0  0  0
   -8.4142    0.9926    0.0290 H   0  0  0  0  0  0  0  0  0  0  0  0
   -6.4145    1.1830   -1.8084 H   0  0  0  0  0  0  0  0  0  0  0  0
   -3.9576    1.3254   -1.8560 H   0  0  0  0  0  0  0  0  0  0  0  0
    1.1447   -0.7290    1.8847 H   0  0  0  0  0  0  0  0  0  0  0  0
    3.1426    0.1515    0.7041 H   0  0  0  0  0  0  0  0  0  0  0  0
    2.9240    1.4550   -1.3489 H   0  0  0  0  0  0  0  0  0  0  0  0
  1  2  4  0  0  0  0
  2  3  4  0  0  0  0
  3  4  1  0  0  0  0
  4  5  2  0  0  0  0
  2  6  1  0  0  0  0
  5  6  1  0  0  0  0
  5  7  1  0  0  0  0
  7  8  4  0  0  0  0
  8  9  4  0  0  0  0
  9 10  4  0  0  0  0
 10 11  1  0  0  0  0
 10 12  4  0  0  0  0
  7 13  4  0  0  0  0
 12 13  4  0  0  0  0
  3 14  4  0  0  0  0
 14 15  4  0  0  0  0
  1 16  4  0  0  0  0
 15 16  4  0  0  0  0
  1 17  1  0  0  0  0
  8 18  1  0  0  0  0
  9 19  1  0  0  0  0
 11 20  1  0  0  0  0
 11 21  1  0  0  0  0
 11 22  1  0  0  0  0
 12 23  1  0  0  0  0
 13 24  1  0  0  0  0
 14 25  1  0  0  0  0
 15 26  1  0  0  0  0
 16 27  1  0  0  0  0
M  END
