   11
Created with kallisto
C     -1.3269   -0.6933    0.0005
N     -1.3594    0.6777    0.0058
C     -0.0302   -1.1507    0.0016
C     -0.1000    1.0539    0.0074
N      0.7386   -0.0216   -0.0009
H      0.3884   -2.1472    0.0004
H      0.2490    2.0784    0.0124
C      2.1778    0.0194   -0.0186
H      2.5165    1.0582    0.0034
H      2.5247   -0.4655   -0.9347
H      2.5510   -0.5124    0.8602
