
  xtb     01142215193D
 xtb: 6.4.1 (1a32961)
 97104  0     0  0            999 V2000
   -0.9688   -2.0372   -0.3360 N   0  0  0  0  0  0  0  0  0  0  0  0
   -2.2203   -1.5635   -0.4748 C   0  0  0  0  0  0  0  0  0  0  0  0
   -3.1361   -2.1922   -1.3286 C   0  0  0  0  0  0  0  0  0  0  0  0
   -2.7507   -3.3011   -2.0501 C   0  0  0  0  0  0  0  0  0  0  0  0
   -1.4482   -3.7716   -1.9050 C   0  0  0  0  0  0  0  0  0  0  0  0
   -0.6058   -3.1064   -1.0379 C   0  0  0  0  0  0  0  0  0  0  0  0
    0.4111   -3.4389   -0.8847 H   0  0  0  0  0  0  0  0  0  0  0  0
   -1.1030   -4.6349   -2.4499 H   0  0  0  0  0  0  0  0  0  0  0  0
   -4.1426   -1.8201   -1.4247 H   0  0  0  0  0  0  0  0  0  0  0  0
   -2.5518   -0.3752    0.3036 C   0  0  0  0  0  0  0  0  0  0  0  0
   -1.5950    0.0857    1.1379 N   0  0  0  0  0  0  0  0  0  0  0  0
   -1.8549    1.1666    1.8713 C   0  0  0  0  0  0  0  0  0  0  0  0
   -3.0530    1.8494    1.8240 C   0  0  0  0  0  0  0  0  0  0  0  0
   -4.0429    1.3965    0.9560 C   0  0  0  0  0  0  0  0  0  0  0  0
   -3.7840    0.2793    0.1910 C   0  0  0  0  0  0  0  0  0  0  0  0
   -4.5345   -0.0792   -0.4934 H   0  0  0  0  0  0  0  0  0  0  0  0
   -3.2116    2.7133    2.4488 H   0  0  0  0  0  0  0  0  0  0  0  0
   -1.0501    1.4902    2.5138 H   0  0  0  0  0  0  0  0  0  0  0  0
    0.4215   -0.8165    0.9133 Ir  0  0  0  0  0  0  0  0  0  0  0  0
    0.8726   -2.2303    1.5405 H   0  0  0  0  0  0  0  0  0  0  0  0
    0.3840    0.6017   -0.6103 B   0  0  0  0  0  0  0  0  0  0  0  0
   -0.1783    0.2674   -1.8263 O   0  0  0  0  0  0  0  0  0  0  0  0
   -0.2920    1.4329   -2.6518 C   0  0  0  0  0  0  0  0  0  0  0  0
    0.0752    1.0759   -4.0898 C   0  0  0  0  0  0  0  0  0  0  0  0
    1.0344    0.5701   -4.1238 H   0  0  0  0  0  0  0  0  0  0  0  0
    0.1105    1.9731   -4.7022 H   0  0  0  0  0  0  0  0  0  0  0  0
   -0.6780    0.4037   -4.4936 H   0  0  0  0  0  0  0  0  0  0  0  0
   -1.7601    1.8789   -2.5976 C   0  0  0  0  0  0  0  0  0  0  0  0
   -1.9347    2.7338   -3.2440 H   0  0  0  0  0  0  0  0  0  0  0  0
   -2.3867    1.0517   -2.9253 H   0  0  0  0  0  0  0  0  0  0  0  0
   -2.0388    2.1281   -1.5755 H   0  0  0  0  0  0  0  0  0  0  0  0
    0.6760    2.4426   -1.9508 C   0  0  0  0  0  0  0  0  0  0  0  0
    0.7462    1.9276   -0.6124 O   0  0  0  0  0  0  0  0  0  0  0  0
    2.0982    2.3820   -2.5207 C   0  0  0  0  0  0  0  0  0  0  0  0
    2.4645    1.3607   -2.4498 H   0  0  0  0  0  0  0  0  0  0  0  0
    2.1286    2.7319   -3.5484 H   0  0  0  0  0  0  0  0  0  0  0  0
    2.7448    3.0104   -1.9132 H   0  0  0  0  0  0  0  0  0  0  0  0
    0.1945    3.8915   -1.9269 C   0  0  0  0  0  0  0  0  0  0  0  0
   -0.7330    3.9908   -1.3717 H   0  0  0  0  0  0  0  0  0  0  0  0
    0.9471    4.5074   -1.4409 H   0  0  0  0  0  0  0  0  0  0  0  0
    0.0497    4.2513   -2.9422 H   0  0  0  0  0  0  0  0  0  0  0  0
    1.6114    0.6124    1.8657 B   0  0  0  0  0  0  0  0  0  0  0  0
    2.9653    0.7995    1.7779 O   0  0  0  0  0  0  0  0  0  0  0  0
    3.3263    2.0510    2.3829 C   0  0  0  0  0  0  0  0  0  0  0  0
    4.6562    1.9081    3.1197 C   0  0  0  0  0  0  0  0  0  0  0  0
    4.6365    1.0594    3.7947 H   0  0  0  0  0  0  0  0  0  0  0  0
    5.4499    1.7473    2.3945 H   0  0  0  0  0  0  0  0  0  0  0  0
    4.8725    2.8147    3.6787 H   0  0  0  0  0  0  0  0  0  0  0  0
    3.4753    3.0600    1.2385 C   0  0  0  0  0  0  0  0  0  0  0  0
    3.7397    4.0464    1.6079 H   0  0  0  0  0  0  0  0  0  0  0  0
    4.2570    2.7090    0.5690 H   0  0  0  0  0  0  0  0  0  0  0  0
    2.5456    3.0959    0.6765 H   0  0  0  0  0  0  0  0  0  0  0  0
    2.0925    2.3534    3.2971 C   0  0  0  0  0  0  0  0  0  0  0  0
    1.0562    1.5610    2.6962 O   0  0  0  0  0  0  0  0  0  0  0  0
    1.6588    3.8170    3.3320 C   0  0  0  0  0  0  0  0  0  0  0  0
    1.3358    4.1457    2.3497 H   0  0  0  0  0  0  0  0  0  0  0  0
    0.8242    3.9258    4.0205 H   0  0  0  0  0  0  0  0  0  0  0  0
    2.4794    4.4409    3.6760 H   0  0  0  0  0  0  0  0  0  0  0  0
    2.2752    1.8344    4.7275 C   0  0  0  0  0  0  0  0  0  0  0  0
    2.5443    0.7827    4.6960 H   0  0  0  0  0  0  0  0  0  0  0  0
    3.0322    2.4027    5.2589 H   0  0  0  0  0  0  0  0  0  0  0  0
    1.3284    1.9248    5.2557 H   0  0  0  0  0  0  0  0  0  0  0  0
    2.2782   -1.3309    0.1741 B   0  0  0  0  0  0  0  0  0  0  0  0
    3.0691   -2.3605    0.6286 O   0  0  0  0  0  0  0  0  0  0  0  0
    4.3696   -2.2927    0.0261 C   0  0  0  0  0  0  0  0  0  0  0  0
    5.3037   -1.6875    1.0792 C   0  0  0  0  0  0  0  0  0  0  0  0
    4.8941   -0.7361    1.4060 H   0  0  0  0  0  0  0  0  0  0  0  0
    5.3318   -2.3547    1.9367 H   0  0  0  0  0  0  0  0  0  0  0  0
    6.3109   -1.5624    0.6943 H   0  0  0  0  0  0  0  0  0  0  0  0
    4.8411   -3.7047   -0.3203 C   0  0  0  0  0  0  0  0  0  0  0  0
    4.9375   -4.2751    0.5997 H   0  0  0  0  0  0  0  0  0  0  0  0
    5.8079   -3.6655   -0.8141 H   0  0  0  0  0  0  0  0  0  0  0  0
    4.1282   -4.2152   -0.9591 H   0  0  0  0  0  0  0  0  0  0  0  0
    4.1350   -1.3473   -1.2059 C   0  0  0  0  0  0  0  0  0  0  0  0
    2.8864   -0.7114   -0.8902 O   0  0  0  0  0  0  0  0  0  0  0  0
    5.2017   -0.2705   -1.3970 C   0  0  0  0  0  0  0  0  0  0  0  0
    6.1786   -0.7242   -1.5381 H   0  0  0  0  0  0  0  0  0  0  0  0
    4.9569    0.3192   -2.2768 H   0  0  0  0  0  0  0  0  0  0  0  0
    5.2204    0.3921   -0.5390 H   0  0  0  0  0  0  0  0  0  0  0  0
    3.9383   -2.1021   -2.5274 C   0  0  0  0  0  0  0  0  0  0  0  0
    3.1383   -2.8305   -2.4294 H   0  0  0  0  0  0  0  0  0  0  0  0
    3.6481   -1.3885   -3.2950 H   0  0  0  0  0  0  0  0  0  0  0  0
    4.8543   -2.5975   -2.8344 H   0  0  0  0  0  0  0  0  0  0  0  0
   -3.4458   -3.7934   -2.7131 H   0  0  0  0  0  0  0  0  0  0  0  0
   -4.9908    1.9073    0.8807 H   0  0  0  0  0  0  0  0  0  0  0  0
    0.2359   -1.6814    2.9603 C   0  0  0  0  0  0  0  0  0  0  0  0
   -1.0682   -2.0431    3.3239 C   0  0  0  0  0  0  0  0  0  0  0  0
    1.1574   -1.5722    3.9136 N   0  0  0  0  0  0  0  0  0  0  0  0
   -1.4333   -2.1479    4.5913 N   0  0  0  0  0  0  0  0  0  0  0  0
   -1.8476   -2.2516    2.6042 H   0  0  0  0  0  0  0  0  0  0  0  0
    0.8311   -1.7154    5.1898 C   0  0  0  0  0  0  0  0  0  0  0  0
   -0.5058   -1.9635    5.5095 C   0  0  0  0  0  0  0  0  0  0  0  0
    1.9018   -1.6300    6.2241 C   0  0  0  0  0  0  0  0  0  0  0  0
   -1.0340   -2.0855    7.1559 Cl  0  0  0  0  0  0  0  0  0  0  0  0
    1.7215   -0.7799    6.8797 H   0  0  0  0  0  0  0  0  0  0  0  0
    2.8645   -1.5220    5.7359 H   0  0  0  0  0  0  0  0  0  0  0  0
    1.8971   -2.5297    6.8370 H   0  0  0  0  0  0  0  0  0  0  0  0
  1  2  4  0  0  0  0
  2  3  4  0  0  0  0
  3  4  4  0  0  0  0
  4  5  4  0  0  0  0
  1  6  4  0  0  0  0
  5  6  4  0  0  0  0
  6  7  1  0  0  0  0
  5  8  1  0  0  0  0
  3  9  1  0  0  0  0
  2 10  1  0  0  0  0
 10 11  4  0  0  0  0
 11 12  4  0  0  0  0
 12 13  4  0  0  0  0
 13 14  4  0  0  0  0
 10 15  4  0  0  0  0
 14 15  4  0  0  0  0
 15 16  1  0  0  0  0
 13 17  1  0  0  0  0
 12 18  1  0  0  0  0
  1 19  1  0  0  0  0
 11 19  1  0  0  0  0
 19 20  1  0  0  0  0
 19 21  1  0  0  0  0
 21 22  1  0  0  0  0
 22 23  1  0  0  0  0
 23 24  1  0  0  0  0
 24 25  1  0  0  0  0
 24 26  1  0  0  0  0
 24 27  1  0  0  0  0
 23 28  1  0  0  0  0
 28 29  1  0  0  0  0
 28 30  1  0  0  0  0
 28 31  1  0  0  0  0
 23 32  1  0  0  0  0
 21 33  1  0  0  0  0
 32 33  1  0  0  0  0
 32 34  1  0  0  0  0
 34 35  1  0  0  0  0
 34 36  1  0  0  0  0
 34 37  1  0  0  0  0
 32 38  1  0  0  0  0
 38 39  1  0  0  0  0
 38 40  1  0  0  0  0
 38 41  1  0  0  0  0
 19 42  1  0  0  0  0
 42 43  1  0  0  0  0
 43 44  1  0  0  0  0
 44 45  1  0  0  0  0
 45 46  1  0  0  0  0
 45 47  1  0  0  0  0
 45 48  1  0  0  0  0
 44 49  1  0  0  0  0
 49 50  1  0  0  0  0
 49 51  1  0  0  0  0
 49 52  1  0  0  0  0
 44 53  1  0  0  0  0
 42 54  1  0  0  0  0
 53 54  1  0  0  0  0
 53 55  1  0  0  0  0
 55 56  1  0  0  0  0
 55 57  1  0  0  0  0
 55 58  1  0  0  0  0
 53 59  1  0  0  0  0
 59 60  1  0  0  0  0
 59 61  1  0  0  0  0
 59 62  1  0  0  0  0
 19 63  1  0  0  0  0
 63 64  1  0  0  0  0
 64 65  1  0  0  0  0
 65 66  1  0  0  0  0
 66 67  1  0  0  0  0
 66 68  1  0  0  0  0
 66 69  1  0  0  0  0
 65 70  1  0  0  0  0
 70 71  1  0  0  0  0
 70 72  1  0  0  0  0
 70 73  1  0  0  0  0
 65 74  1  0  0  0  0
 63 75  1  0  0  0  0
 74 75  1  0  0  0  0
 74 76  1  0  0  0  0
 76 77  1  0  0  0  0
 76 78  1  0  0  0  0
 76 79  1  0  0  0  0
 74 80  1  0  0  0  0
 80 81  1  0  0  0  0
 80 82  1  0  0  0  0
 80 83  1  0  0  0  0
  4 84  1  0  0  0  0
 14 85  1  0  0  0  0
 19 86  1  0  0  0  0
 20 86  1  0  0  0  0
 86 87  4  0  0  0  0
 86 88  4  0  0  0  0
 87 89  4  0  0  0  0
 87 90  1  0  0  0  0
 88 91  4  0  0  0  0
 89 92  4  0  0  0  0
 91 92  4  0  0  0  0
 91 93  1  0  0  0  0
 92 94  1  0  0  0  0
 93 95  1  0  0  0  0
 93 96  1  0  0  0  0
 93 97  1  0  0  0  0
M  END
