   12

C         -1.12226       -0.66713        0.05774
N          0.00227       -1.41477        0.04784
C          1.16242       -0.71848       -0.02563
Cl         2.55182       -1.72846       -0.02530
C          1.20950        0.67309       -0.09340
C          2.47402        1.46230       -0.22197
N          0.06078        1.41146       -0.07239
C         -1.09544        0.71327        0.00584
H         -2.05725       -1.21468        0.10897
H          3.37709        0.84842       -0.19942
H          2.54408        2.18564        0.59582
H          2.46776        2.00911       -1.17068
