
  xtb     01142213263D
 xtb: 6.4.1 (1a32961)
 12 12  0     0  0            999 V2000
   -0.1401    0.7011   -0.0201 C   0  0  0  0  0  0  0  0  0  0  0  0
    1.3507    1.5847   -0.0498 Cl  0  0  0  0  0  0  0  0  0  0  0  0
   -1.3460    1.3849   -0.0330 C   0  0  0  0  0  0  0  0  0  0  0  0
   -2.5371    0.6796   -0.0106 C   0  0  0  0  0  0  0  0  0  0  0  0
   -2.5261   -0.7053    0.0238 C   0  0  0  0  0  0  0  0  0  0  0  0
   -1.3240   -1.3919    0.0372 C   0  0  0  0  0  0  0  0  0  0  0  0
   -0.1291   -0.6892    0.0153 C   0  0  0  0  0  0  0  0  0  0  0  0
    1.3755   -1.5493    0.0340 Cl  0  0  0  0  0  0  0  0  0  0  0  0
   -1.3396    2.4625   -0.0614 H   0  0  0  0  0  0  0  0  0  0  0  0
   -3.4723    1.2163   -0.0209 H   0  0  0  0  0  0  0  0  0  0  0  0
   -3.4527   -1.2565    0.0410 H   0  0  0  0  0  0  0  0  0  0  0  0
   -1.3004   -2.4692    0.0655 H   0  0  0  0  0  0  0  0  0  0  0  0
  1  2  1  0  0  0  0
  1  3  4  0  0  0  0
  3  4  4  0  0  0  0
  4  5  4  0  0  0  0
  5  6  4  0  0  0  0
  1  7  4  0  0  0  0
  6  7  4  0  0  0  0
  7  8  1  0  0  0  0
  3  9  1  0  0  0  0
  4 10  1  0  0  0  0
  5 11  1  0  0  0  0
  6 12  1  0  0  0  0
M  END
