   13
Created with kallisto
C      0.0044   -0.6742    0.0168
C     -1.2132    0.0160    0.0120
C      1.2099    0.0360    0.0082
C     -1.2221    1.4151   -0.0007
C     -2.4484   -0.7092    0.0138
C      2.4564   -0.6715    0.0036
C      1.1946    1.4353   -0.0041
C     -0.0199    2.1239   -0.0107
H     -2.1653    1.9600   -0.0047
N     -3.4480   -1.2980    0.0157
N      3.4602   -1.2525   -0.0040
H      2.1276    1.9971   -0.0113
H     -0.0298    3.2119   -0.0267
