
  xtb     10082107293D
 xtb: 6.4.0 (f63f532)
 96103  0     0  0            999 V2000
   -0.9365   -1.9835   -0.3927 N   0  0  0  0  0  0  0  0  0  0  0  0
   -2.1688   -1.4752   -0.5852 C   0  0  0  0  0  0  0  0  0  0  0  0
   -3.0493   -2.0549   -1.5084 C   0  0  0  0  0  0  0  0  0  0  0  0
   -2.6490   -3.1456   -2.2478 C   0  0  0  0  0  0  0  0  0  0  0  0
   -1.3652   -3.6489   -2.0507 C   0  0  0  0  0  0  0  0  0  0  0  0
   -0.5604   -3.0356   -1.1142 C   0  0  0  0  0  0  0  0  0  0  0  0
    0.4391   -3.3990   -0.9212 H   0  0  0  0  0  0  0  0  0  0  0  0
   -1.0070   -4.4982   -2.6092 H   0  0  0  0  0  0  0  0  0  0  0  0
   -4.0402   -1.6550   -1.6467 H   0  0  0  0  0  0  0  0  0  0  0  0
   -2.5131   -0.2974    0.1989 C   0  0  0  0  0  0  0  0  0  0  0  0
   -1.5809    0.1381    1.0743 N   0  0  0  0  0  0  0  0  0  0  0  0
   -1.8506    1.2166    1.8082 C   0  0  0  0  0  0  0  0  0  0  0  0
   -3.0309    1.9237    1.7203 C   0  0  0  0  0  0  0  0  0  0  0  0
   -3.9953    1.4975    0.8096 C   0  0  0  0  0  0  0  0  0  0  0  0
   -3.7283    0.3823    0.0461 C   0  0  0  0  0  0  0  0  0  0  0  0
   -4.4593    0.0431   -0.6689 H   0  0  0  0  0  0  0  0  0  0  0  0
   -3.1984    2.7843    2.3476 H   0  0  0  0  0  0  0  0  0  0  0  0
   -1.0705    1.5139    2.4925 H   0  0  0  0  0  0  0  0  0  0  0  0
    0.4215   -0.8165    0.9133 Ir  0  0  0  0  0  0  0  0  0  0  0  0
    0.8726   -2.2303    1.5405 H   0  0  0  0  0  0  0  0  0  0  0  0
    0.3930    0.6327   -0.5879 B   0  0  0  0  0  0  0  0  0  0  0  0
   -0.1759    0.3457   -1.8123 O   0  0  0  0  0  0  0  0  0  0  0  0
   -0.2464    1.5326   -2.6115 C   0  0  0  0  0  0  0  0  0  0  0  0
    0.1182    1.2000   -4.0558 C   0  0  0  0  0  0  0  0  0  0  0  0
    1.0556    0.6552   -4.0966 H   0  0  0  0  0  0  0  0  0  0  0  0
    0.1983    2.1123   -4.6412 H   0  0  0  0  0  0  0  0  0  0  0  0
   -0.6593    0.5732   -4.4862 H   0  0  0  0  0  0  0  0  0  0  0  0
   -1.6972    2.0315   -2.5575 C   0  0  0  0  0  0  0  0  0  0  0  0
   -1.8341    2.9020   -3.1921 H   0  0  0  0  0  0  0  0  0  0  0  0
   -2.3534    1.2344   -2.9019 H   0  0  0  0  0  0  0  0  0  0  0  0
   -1.9734    2.2777   -1.5339 H   0  0  0  0  0  0  0  0  0  0  0  0
    0.7503    2.4919   -1.8830 C   0  0  0  0  0  0  0  0  0  0  0  0
    0.7806    1.9535   -0.5530 O   0  0  0  0  0  0  0  0  0  0  0  0
    2.1758    2.3786   -2.4361 C   0  0  0  0  0  0  0  0  0  0  0  0
    2.4907    1.3386   -2.3964 H   0  0  0  0  0  0  0  0  0  0  0  0
    2.2388    2.7596   -3.4512 H   0  0  0  0  0  0  0  0  0  0  0  0
    2.8441    2.9533   -1.7996 H   0  0  0  0  0  0  0  0  0  0  0  0
    0.3293    3.9594   -1.8465 C   0  0  0  0  0  0  0  0  0  0  0  0
   -0.5935    4.0933   -1.2903 H   0  0  0  0  0  0  0  0  0  0  0  0
    1.1071    4.5420   -1.3586 H   0  0  0  0  0  0  0  0  0  0  0  0
    0.1983    4.3321   -2.8591 H   0  0  0  0  0  0  0  0  0  0  0  0
    1.5788    0.6435    1.8774 B   0  0  0  0  0  0  0  0  0  0  0  0
    2.8739    1.0257    1.6528 O   0  0  0  0  0  0  0  0  0  0  0  0
    3.1801    2.2436    2.3487 C   0  0  0  0  0  0  0  0  0  0  0  0
    4.5272    2.0991    3.0586 C   0  0  0  0  0  0  0  0  0  0  0  0
    4.5404    1.2350    3.7137 H   0  0  0  0  0  0  0  0  0  0  0  0
    5.3045    1.9602    2.3120 H   0  0  0  0  0  0  0  0  0  0  0  0
    4.7470    2.9958    3.6305 H   0  0  0  0  0  0  0  0  0  0  0  0
    3.2994    3.3380    1.2817 C   0  0  0  0  0  0  0  0  0  0  0  0
    3.4821    4.3106    1.7284 H   0  0  0  0  0  0  0  0  0  0  0  0
    4.1313    3.0886    0.6272 H   0  0  0  0  0  0  0  0  0  0  0  0
    2.3940    3.3576    0.6822 H   0  0  0  0  0  0  0  0  0  0  0  0
    1.9465    2.4344    3.3073 C   0  0  0  0  0  0  0  0  0  0  0  0
    1.0149    1.4446    2.8459 O   0  0  0  0  0  0  0  0  0  0  0  0
    1.2713    3.8049    3.2134 C   0  0  0  0  0  0  0  0  0  0  0  0
    0.9034    3.9838    2.2081 H   0  0  0  0  0  0  0  0  0  0  0  0
    0.4243    3.8266    3.8956 H   0  0  0  0  0  0  0  0  0  0  0  0
    1.9657    4.5906    3.4961 H   0  0  0  0  0  0  0  0  0  0  0  0
    2.2457    2.1408    4.7818 C   0  0  0  0  0  0  0  0  0  0  0  0
    2.6802    1.1539    4.9014 H   0  0  0  0  0  0  0  0  0  0  0  0
    2.9215    2.8839    5.1931 H   0  0  0  0  0  0  0  0  0  0  0  0
    1.3109    2.1661    5.3378 H   0  0  0  0  0  0  0  0  0  0  0  0
    2.2782   -1.3309    0.1741 B   0  0  0  0  0  0  0  0  0  0  0  0
    3.2186   -2.1479    0.7508 O   0  0  0  0  0  0  0  0  0  0  0  0
    4.4241   -2.1534   -0.0272 C   0  0  0  0  0  0  0  0  0  0  0  0
    5.4044   -1.1992    0.6604 C   0  0  0  0  0  0  0  0  0  0  0  0
    4.9372   -0.2239    0.7642 H   0  0  0  0  0  0  0  0  0  0  0  0
    5.6120   -1.5762    1.6588 H   0  0  0  0  0  0  0  0  0  0  0  0
    6.3351   -1.1227    0.1077 H   0  0  0  0  0  0  0  0  0  0  0  0
    5.0115   -3.5630   -0.0392 C   0  0  0  0  0  0  0  0  0  0  0  0
    5.3011   -3.8245    0.9748 H   0  0  0  0  0  0  0  0  0  0  0  0
    5.8896   -3.5948   -0.6776 H   0  0  0  0  0  0  0  0  0  0  0  0
    4.2869   -4.2940   -0.3825 H   0  0  0  0  0  0  0  0  0  0  0  0
    3.9316   -1.6201   -1.4165 C   0  0  0  0  0  0  0  0  0  0  0  0
    2.7005   -0.9562   -1.0831 O   0  0  0  0  0  0  0  0  0  0  0  0
    4.8761   -0.6298   -2.0940 C   0  0  0  0  0  0  0  0  0  0  0  0
    5.8508   -1.0853   -2.2443 H   0  0  0  0  0  0  0  0  0  0  0  0
    4.4676   -0.3511   -3.0625 H   0  0  0  0  0  0  0  0  0  0  0  0
    4.9795    0.2690   -1.4957 H   0  0  0  0  0  0  0  0  0  0  0  0
    3.5880   -2.7421   -2.4051 C   0  0  0  0  0  0  0  0  0  0  0  0
    2.9045   -3.4515   -1.9468 H   0  0  0  0  0  0  0  0  0  0  0  0
    3.0908   -2.3059   -3.2682 H   0  0  0  0  0  0  0  0  0  0  0  0
    4.4852   -3.2573   -2.7341 H   0  0  0  0  0  0  0  0  0  0  0  0
   -3.3169   -3.5976   -2.9652 H   0  0  0  0  0  0  0  0  0  0  0  0
   -4.9293    2.0279    0.7019 H   0  0  0  0  0  0  0  0  0  0  0  0
    0.2359   -1.6814    2.9603 C   0  0  0  0  0  0  0  0  0  0  0  0
   -1.1147   -1.9251    3.2364 C   0  0  0  0  0  0  0  0  0  0  0  0
    1.0843   -1.6560    4.0569 C   0  0  0  0  0  0  0  0  0  0  0  0
   -1.6037   -1.9841    4.5290 C   0  0  0  0  0  0  0  0  0  0  0  0
   -1.8086   -2.0796    2.4221 H   0  0  0  0  0  0  0  0  0  0  0  0
    0.6152   -1.7096    5.3599 C   0  0  0  0  0  0  0  0  0  0  0  0
    3.1829   -1.6471    3.8365 I   0  0  0  0  0  0  0  0  0  0  0  0
   -0.7395   -1.8459    5.6017 C   0  0  0  0  0  0  0  0  0  0  0  0
   -2.6592   -2.1469    4.6963 H   0  0  0  0  0  0  0  0  0  0  0  0
    1.3083   -1.6617    6.1859 H   0  0  0  0  0  0  0  0  0  0  0  0
   -1.1061   -1.8783    6.6165 H   0  0  0  0  0  0  0  0  0  0  0  0
  1  2  4  0  0  0  0
  2  3  4  0  0  0  0
  3  4  4  0  0  0  0
  4  5  4  0  0  0  0
  1  6  4  0  0  0  0
  5  6  4  0  0  0  0
  6  7  1  0  0  0  0
  5  8  1  0  0  0  0
  3  9  1  0  0  0  0
  2 10  1  0  0  0  0
 10 11  4  0  0  0  0
 11 12  4  0  0  0  0
 12 13  4  0  0  0  0
 13 14  4  0  0  0  0
 10 15  4  0  0  0  0
 14 15  4  0  0  0  0
 15 16  1  0  0  0  0
 13 17  1  0  0  0  0
 12 18  1  0  0  0  0
  1 19  1  0  0  0  0
 11 19  1  0  0  0  0
 19 20  1  0  0  0  0
 19 21  1  0  0  0  0
 21 22  1  0  0  0  0
 22 23  1  0  0  0  0
 23 24  1  0  0  0  0
 24 25  1  0  0  0  0
 24 26  1  0  0  0  0
 24 27  1  0  0  0  0
 23 28  1  0  0  0  0
 28 29  1  0  0  0  0
 28 30  1  0  0  0  0
 28 31  1  0  0  0  0
 23 32  1  0  0  0  0
 21 33  1  0  0  0  0
 32 33  1  0  0  0  0
 32 34  1  0  0  0  0
 34 35  1  0  0  0  0
 34 36  1  0  0  0  0
 34 37  1  0  0  0  0
 32 38  1  0  0  0  0
 38 39  1  0  0  0  0
 38 40  1  0  0  0  0
 38 41  1  0  0  0  0
 19 42  1  0  0  0  0
 42 43  1  0  0  0  0
 43 44  1  0  0  0  0
 44 45  1  0  0  0  0
 45 46  1  0  0  0  0
 45 47  1  0  0  0  0
 45 48  1  0  0  0  0
 44 49  1  0  0  0  0
 49 50  1  0  0  0  0
 49 51  1  0  0  0  0
 49 52  1  0  0  0  0
 44 53  1  0  0  0  0
 42 54  1  0  0  0  0
 53 54  1  0  0  0  0
 53 55  1  0  0  0  0
 55 56  1  0  0  0  0
 55 57  1  0  0  0  0
 55 58  1  0  0  0  0
 53 59  1  0  0  0  0
 59 60  1  0  0  0  0
 59 61  1  0  0  0  0
 59 62  1  0  0  0  0
 19 63  1  0  0  0  0
 63 64  1  0  0  0  0
 64 65  1  0  0  0  0
 65 66  1  0  0  0  0
 66 67  1  0  0  0  0
 66 68  1  0  0  0  0
 66 69  1  0  0  0  0
 65 70  1  0  0  0  0
 70 71  1  0  0  0  0
 70 72  1  0  0  0  0
 70 73  1  0  0  0  0
 65 74  1  0  0  0  0
 63 75  1  0  0  0  0
 74 75  1  0  0  0  0
 74 76  1  0  0  0  0
 76 77  1  0  0  0  0
 76 78  1  0  0  0  0
 76 79  1  0  0  0  0
 74 80  1  0  0  0  0
 80 81  1  0  0  0  0
 80 82  1  0  0  0  0
 80 83  1  0  0  0  0
  4 84  1  0  0  0  0
 14 85  1  0  0  0  0
 19 86  1  0  0  0  0
 20 86  1  0  0  0  0
 86 87  4  0  0  0  0
 86 88  4  0  0  0  0
 87 89  4  0  0  0  0
 87 90  1  0  0  0  0
 88 91  4  0  0  0  0
 88 92  1  0  0  0  0
 89 93  4  0  0  0  0
 91 93  4  0  0  0  0
 89 94  1  0  0  0  0
 91 95  1  0  0  0  0
 93 96  1  0  0  0  0
M  END
