   22
Created with kallisto
C     -0.9084    0.0779    0.6400
C     -0.0985    0.8823    1.4151
N     -0.3755   -1.1899    0.6331
C      1.0175    0.1023    1.8016
H     -0.2727    1.9274    1.6395
C      0.8287   -1.1637    1.2879
O     -0.7964   -2.2896   -0.1096
H      1.8781    0.4350    2.3680
H      1.4541   -2.0434    1.3101
Si    -2.4001   -2.7565    0.0337
C     -3.2817   -2.1544    1.5796
C     -3.3269   -2.1139   -1.4828
C     -2.5532   -4.6398    0.0221
H     -3.3219   -1.0633    1.6280
H     -2.7822   -2.5235    2.4799
H     -4.3130   -2.5217    1.5896
H     -3.2627   -1.0239   -1.5370
H     -4.3806   -2.4012   -1.4420
H     -2.8840   -2.5290   -2.3939
H     -2.0726   -5.0687    0.9057
H     -2.0854   -5.0606   -0.8718
H     -3.6074   -4.9345    0.0283
