
  xtb     01142213533D
 xtb: 6.4.1 (1a32961)
107114  0     0  0            999 V2000
   -0.9373   -2.0172   -0.3757 N   0  0  0  0  0  0  0  0  0  0  0  0
   -2.1823   -1.5266   -0.5230 C   0  0  0  0  0  0  0  0  0  0  0  0
   -3.0516   -2.0465   -1.4903 C   0  0  0  0  0  0  0  0  0  0  0  0
   -2.6361   -3.0769   -2.3045 C   0  0  0  0  0  0  0  0  0  0  0  0
   -1.3466   -3.5755   -2.1392 C   0  0  0  0  0  0  0  0  0  0  0  0
   -0.5463   -3.0100   -1.1687 C   0  0  0  0  0  0  0  0  0  0  0  0
    0.4636   -3.3596   -1.0133 H   0  0  0  0  0  0  0  0  0  0  0  0
   -0.9785   -4.3818   -2.7526 H   0  0  0  0  0  0  0  0  0  0  0  0
   -4.0430   -1.6417   -1.6119 H   0  0  0  0  0  0  0  0  0  0  0  0
   -2.5553   -0.4325    0.3643 C   0  0  0  0  0  0  0  0  0  0  0  0
   -1.5915    0.0312    1.1858 N   0  0  0  0  0  0  0  0  0  0  0  0
   -1.8873    1.0235    2.0212 C   0  0  0  0  0  0  0  0  0  0  0  0
   -3.1314    1.6168    2.0908 C   0  0  0  0  0  0  0  0  0  0  0  0
   -4.1354    1.1556    1.2436 C   0  0  0  0  0  0  0  0  0  0  0  0
   -3.8403    0.1250    0.3779 C   0  0  0  0  0  0  0  0  0  0  0  0
   -4.6076   -0.2509   -0.2785 H   0  0  0  0  0  0  0  0  0  0  0  0
   -3.3161    2.4136    2.7930 H   0  0  0  0  0  0  0  0  0  0  0  0
   -1.0763    1.3491    2.6543 H   0  0  0  0  0  0  0  0  0  0  0  0
    0.4215   -0.8165    0.9133 Ir  0  0  0  0  0  0  0  0  0  0  0  0
    0.8726   -2.2303    1.5405 H   0  0  0  0  0  0  0  0  0  0  0  0
    0.3901    0.5956   -0.6228 B   0  0  0  0  0  0  0  0  0  0  0  0
   -0.3976    0.3736   -1.7403 O   0  0  0  0  0  0  0  0  0  0  0  0
   -0.4623    1.5577   -2.5402 C   0  0  0  0  0  0  0  0  0  0  0  0
   -0.4163    1.1864   -4.0203 C   0  0  0  0  0  0  0  0  0  0  0  0
    0.4241    0.5323   -4.2273 H   0  0  0  0  0  0  0  0  0  0  0  0
   -0.3393    2.0841   -4.6283 H   0  0  0  0  0  0  0  0  0  0  0  0
   -1.3301    0.6593   -4.2844 H   0  0  0  0  0  0  0  0  0  0  0  0
   -1.8042    2.2371   -2.2298 C   0  0  0  0  0  0  0  0  0  0  0  0
   -1.9447    3.1264   -2.8371 H   0  0  0  0  0  0  0  0  0  0  0  0
   -2.6074    1.5333   -2.4395 H   0  0  0  0  0  0  0  0  0  0  0  0
   -1.8545    2.4994   -1.1747 H   0  0  0  0  0  0  0  0  0  0  0  0
    0.7630    2.3801   -2.0257 C   0  0  0  0  0  0  0  0  0  0  0  0
    0.9618    1.8462   -0.7103 O   0  0  0  0  0  0  0  0  0  0  0  0
    2.0415    2.0816   -2.8185 C   0  0  0  0  0  0  0  0  0  0  0  0
    2.2081    1.0071   -2.8364 H   0  0  0  0  0  0  0  0  0  0  0  0
    1.9827    2.4731   -3.8299 H   0  0  0  0  0  0  0  0  0  0  0  0
    2.8815    2.5443   -2.3050 H   0  0  0  0  0  0  0  0  0  0  0  0
    0.5474    3.8903   -1.9543 C   0  0  0  0  0  0  0  0  0  0  0  0
   -0.2302    4.1431   -1.2399 H   0  0  0  0  0  0  0  0  0  0  0  0
    1.4708    4.3673   -1.6345 H   0  0  0  0  0  0  0  0  0  0  0  0
    0.2767    4.2740   -2.9348 H   0  0  0  0  0  0  0  0  0  0  0  0
    1.5753    0.6673    1.8477 B   0  0  0  0  0  0  0  0  0  0  0  0
    2.8969    0.9717    1.6646 O   0  0  0  0  0  0  0  0  0  0  0  0
    3.2296    2.2027    2.3178 C   0  0  0  0  0  0  0  0  0  0  0  0
    4.5782    2.0623    3.0222 C   0  0  0  0  0  0  0  0  0  0  0  0
    4.5726    1.2117    3.6937 H   0  0  0  0  0  0  0  0  0  0  0  0
    5.3505    1.9018    2.2746 H   0  0  0  0  0  0  0  0  0  0  0  0
    4.8081    2.9691    3.5755 H   0  0  0  0  0  0  0  0  0  0  0  0
    3.3439    3.2677    1.2194 C   0  0  0  0  0  0  0  0  0  0  0  0
    3.5515    4.2493    1.6350 H   0  0  0  0  0  0  0  0  0  0  0  0
    4.1561    2.9877    0.5525 H   0  0  0  0  0  0  0  0  0  0  0  0
    2.4256    3.2842    0.6389 H   0  0  0  0  0  0  0  0  0  0  0  0
    2.0095    2.4310    3.2768 C   0  0  0  0  0  0  0  0  0  0  0  0
    1.0087    1.5598    2.7343 O   0  0  0  0  0  0  0  0  0  0  0  0
    1.4684    3.8604    3.3013 C   0  0  0  0  0  0  0  0  0  0  0  0
    1.1195    4.1581    2.3179 H   0  0  0  0  0  0  0  0  0  0  0  0
    0.6291    3.9098    3.9909 H   0  0  0  0  0  0  0  0  0  0  0  0
    2.2396    4.5472    3.6394 H   0  0  0  0  0  0  0  0  0  0  0  0
    2.2766    1.9672    4.7141 C   0  0  0  0  0  0  0  0  0  0  0  0
    2.6025    0.9312    4.7075 H   0  0  0  0  0  0  0  0  0  0  0  0
    3.0227    2.5918    5.1957 H   0  0  0  0  0  0  0  0  0  0  0  0
    1.3477    2.0270    5.2772 H   0  0  0  0  0  0  0  0  0  0  0  0
    2.2782   -1.3309    0.1741 B   0  0  0  0  0  0  0  0  0  0  0  0
    3.4269   -1.7624    0.7930 O   0  0  0  0  0  0  0  0  0  0  0  0
    4.4894   -1.8811   -0.1654 C   0  0  0  0  0  0  0  0  0  0  0  0
    5.3215   -0.5970   -0.0849 C   0  0  0  0  0  0  0  0  0  0  0  0
    4.6685    0.2582   -0.2370 H   0  0  0  0  0  0  0  0  0  0  0  0
    5.7464   -0.5184    0.9117 H   0  0  0  0  0  0  0  0  0  0  0  0
    6.1268   -0.6016   -0.8134 H   0  0  0  0  0  0  0  0  0  0  0  0
    5.3711   -3.0809    0.1741 C   0  0  0  0  0  0  0  0  0  0  0  0
    5.8583   -2.9010    1.1273 H   0  0  0  0  0  0  0  0  0  0  0  0
    6.1286   -3.2098   -0.5943 H   0  0  0  0  0  0  0  0  0  0  0  0
    4.7878   -3.9907    0.2616 H   0  0  0  0  0  0  0  0  0  0  0  0
    3.7112   -1.9982   -1.5179 C   0  0  0  0  0  0  0  0  0  0  0  0
    2.4540   -1.3833   -1.2019 O   0  0  0  0  0  0  0  0  0  0  0  0
    4.3566   -1.2826   -2.7025 C   0  0  0  0  0  0  0  0  0  0  0  0
    5.3497   -1.6840   -2.8854 H   0  0  0  0  0  0  0  0  0  0  0  0
    3.7460   -1.4412   -3.5881 H   0  0  0  0  0  0  0  0  0  0  0  0
    4.4225   -0.2154   -2.5208 H   0  0  0  0  0  0  0  0  0  0  0  0
    3.4189   -3.4530   -1.9142 C   0  0  0  0  0  0  0  0  0  0  0  0
    2.9648   -3.9841   -1.0814 H   0  0  0  0  0  0  0  0  0  0  0  0
    2.7137   -3.4501   -2.7421 H   0  0  0  0  0  0  0  0  0  0  0  0
    4.3260   -3.9635   -2.2231 H   0  0  0  0  0  0  0  0  0  0  0  0
   -3.2959   -3.4843   -3.0557 H   0  0  0  0  0  0  0  0  0  0  0  0
   -5.1233    1.5906    1.2648 H   0  0  0  0  0  0  0  0  0  0  0  0
    0.2359   -1.6814    2.9603 C   0  0  0  0  0  0  0  0  0  0  0  0
   -1.0089   -1.9903    3.4831 C   0  0  0  0  0  0  0  0  0  0  0  0
    1.0641   -1.5540    4.0230 N   0  0  0  0  0  0  0  0  0  0  0  0
   -0.9091   -2.0059    4.8847 C   0  0  0  0  0  0  0  0  0  0  0  0
   -1.9008   -2.1815    2.9162 H   0  0  0  0  0  0  0  0  0  0  0  0
    0.4005   -1.7369    5.1903 C   0  0  0  0  0  0  0  0  0  0  0  0
    2.4154   -1.3457    3.9648 O   0  0  0  0  0  0  0  0  0  0  0  0
   -1.7013   -2.1928    5.5846 H   0  0  0  0  0  0  0  0  0  0  0  0
    0.9050   -1.6501    6.1306 H   0  0  0  0  0  0  0  0  0  0  0  0
    3.5037   -2.6020    4.1822 Si  0  0  0  0  0  0  0  0  0  0  0  0
    3.0528   -4.0796    3.0733 C   0  0  0  0  0  0  0  0  0  0  0  0
    3.4745   -3.1981    6.0042 C   0  0  0  0  0  0  0  0  0  0  0  0
    5.1285   -1.7129    3.7921 C   0  0  0  0  0  0  0  0  0  0  0  0
    2.0804   -4.4850    3.3422 H   0  0  0  0  0  0  0  0  0  0  0  0
    3.7767   -4.8843    3.1418 H   0  0  0  0  0  0  0  0  0  0  0  0
    3.0010   -3.7474    2.0424 H   0  0  0  0  0  0  0  0  0  0  0  0
    2.5352   -3.6881    6.2481 H   0  0  0  0  0  0  0  0  0  0  0  0
    3.6039   -2.3721    6.6986 H   0  0  0  0  0  0  0  0  0  0  0  0
    4.2692   -3.9111    6.1977 H   0  0  0  0  0  0  0  0  0  0  0  0
    5.9356   -2.4205    3.6381 H   0  0  0  0  0  0  0  0  0  0  0  0
    5.4281   -1.0442    4.5929 H   0  0  0  0  0  0  0  0  0  0  0  0
    4.9934   -1.1300    2.8889 H   0  0  0  0  0  0  0  0  0  0  0  0
  1  2  4  0  0  0  0
  2  3  4  0  0  0  0
  3  4  4  0  0  0  0
  4  5  4  0  0  0  0
  1  6  4  0  0  0  0
  5  6  4  0  0  0  0
  6  7  1  0  0  0  0
  5  8  1  0  0  0  0
  3  9  1  0  0  0  0
  2 10  1  0  0  0  0
 10 11  4  0  0  0  0
 11 12  4  0  0  0  0
 12 13  4  0  0  0  0
 13 14  4  0  0  0  0
 10 15  4  0  0  0  0
 14 15  4  0  0  0  0
 15 16  1  0  0  0  0
 13 17  1  0  0  0  0
 12 18  1  0  0  0  0
  1 19  1  0  0  0  0
 11 19  1  0  0  0  0
 19 20  1  0  0  0  0
 19 21  1  0  0  0  0
 21 22  1  0  0  0  0
 22 23  1  0  0  0  0
 23 24  1  0  0  0  0
 24 25  1  0  0  0  0
 24 26  1  0  0  0  0
 24 27  1  0  0  0  0
 23 28  1  0  0  0  0
 28 29  1  0  0  0  0
 28 30  1  0  0  0  0
 28 31  1  0  0  0  0
 23 32  1  0  0  0  0
 21 33  1  0  0  0  0
 32 33  1  0  0  0  0
 32 34  1  0  0  0  0
 34 35  1  0  0  0  0
 34 36  1  0  0  0  0
 34 37  1  0  0  0  0
 32 38  1  0  0  0  0
 38 39  1  0  0  0  0
 38 40  1  0  0  0  0
 38 41  1  0  0  0  0
 19 42  1  0  0  0  0
 42 43  1  0  0  0  0
 43 44  1  0  0  0  0
 44 45  1  0  0  0  0
 45 46  1  0  0  0  0
 45 47  1  0  0  0  0
 45 48  1  0  0  0  0
 44 49  1  0  0  0  0
 49 50  1  0  0  0  0
 49 51  1  0  0  0  0
 49 52  1  0  0  0  0
 44 53  1  0  0  0  0
 42 54  1  0  0  0  0
 53 54  1  0  0  0  0
 53 55  1  0  0  0  0
 55 56  1  0  0  0  0
 55 57  1  0  0  0  0
 55 58  1  0  0  0  0
 53 59  1  0  0  0  0
 59 60  1  0  0  0  0
 59 61  1  0  0  0  0
 59 62  1  0  0  0  0
 19 63  1  0  0  0  0
 63 64  1  0  0  0  0
 64 65  1  0  0  0  0
 65 66  1  0  0  0  0
 66 67  1  0  0  0  0
 66 68  1  0  0  0  0
 66 69  1  0  0  0  0
 65 70  1  0  0  0  0
 70 71  1  0  0  0  0
 70 72  1  0  0  0  0
 70 73  1  0  0  0  0
 65 74  1  0  0  0  0
 63 75  1  0  0  0  0
 74 75  1  0  0  0  0
 74 76  1  0  0  0  0
 76 77  1  0  0  0  0
 76 78  1  0  0  0  0
 76 79  1  0  0  0  0
 74 80  1  0  0  0  0
 80 81  1  0  0  0  0
 80 82  1  0  0  0  0
 80 83  1  0  0  0  0
  4 84  1  0  0  0  0
 14 85  1  0  0  0  0
 19 86  1  0  0  0  0
 20 86  1  0  0  0  0
 86 87  4  0  0  0  0
 86 88  4  0  0  0  0
 87 89  4  0  0  0  0
 87 90  1  0  0  0  0
 88 91  4  0  0  0  0
 89 91  2  0  0  0  0
 88 92  1  0  0  0  0
 89 93  1  0  0  0  0
 91 94  1  0  0  0  0
 92 95  1  0  0  0  0
 95 96  1  0  0  0  0
 95 97  1  0  0  0  0
 95 98  1  0  0  0  0
 96 99  1  0  0  0  0
 96100  1  0  0  0  0
 96101  1  0  0  0  0
 97102  1  0  0  0  0
 97103  1  0  0  0  0
 97104  1  0  0  0  0
 98105  1  0  0  0  0
 98106  1  0  0  0  0
 98107  1  0  0  0  0
M  END
