   14
Created with kallisto
C      0.9519    1.3349   -0.0005
N      2.1143    0.6434    0.0034
C     -0.2494    0.6377    0.0008
C      2.0724   -0.7077    0.0057
N     -1.5490    1.0899    0.0014
C     -0.2970   -0.7557    0.0024
C      0.9104   -1.4659    0.0033
H      3.0448   -1.1932    0.0107
C     -2.4168    0.0292    0.0050
H     -1.8197    2.0640    0.0020
C     -1.6698   -1.1272    0.0046
H      0.9429   -2.5479    0.0039
H     -3.4869    0.1880    0.0081
H     -2.0666   -2.1340    0.0074
