
  xtb     01142213463D
 xtb: 6.4.1 (1a32961)
 93100  0     0  0            999 V2000
   -0.9574   -2.0221   -0.3408 N   0  0  0  0  0  0  0  0  0  0  0  0
   -2.1838   -1.5016   -0.5168 C   0  0  0  0  0  0  0  0  0  0  0  0
   -3.0407   -1.9944   -1.5068 C   0  0  0  0  0  0  0  0  0  0  0  0
   -2.6313   -3.0384   -2.3089 C   0  0  0  0  0  0  0  0  0  0  0  0
   -1.3652   -3.5774   -2.1050 C   0  0  0  0  0  0  0  0  0  0  0  0
   -0.5732   -3.0313   -1.1155 C   0  0  0  0  0  0  0  0  0  0  0  0
    0.4194   -3.4141   -0.9242 H   0  0  0  0  0  0  0  0  0  0  0  0
   -1.0044   -4.3968   -2.7050 H   0  0  0  0  0  0  0  0  0  0  0  0
   -4.0131   -1.5564   -1.6594 H   0  0  0  0  0  0  0  0  0  0  0  0
   -2.5491   -0.3953    0.3643 C   0  0  0  0  0  0  0  0  0  0  0  0
   -1.5759    0.0892    1.1599 N   0  0  0  0  0  0  0  0  0  0  0  0
   -1.8601    1.0988    1.9778 C   0  0  0  0  0  0  0  0  0  0  0  0
   -3.1091    1.6828    2.0599 C   0  0  0  0  0  0  0  0  0  0  0  0
   -4.1257    1.1915    1.2485 C   0  0  0  0  0  0  0  0  0  0  0  0
   -3.8387    0.1461    0.3957 C   0  0  0  0  0  0  0  0  0  0  0  0
   -4.6163   -0.2558   -0.2319 H   0  0  0  0  0  0  0  0  0  0  0  0
   -3.2846    2.4949    2.7465 H   0  0  0  0  0  0  0  0  0  0  0  0
   -1.0379    1.4482    2.5837 H   0  0  0  0  0  0  0  0  0  0  0  0
    0.4215   -0.8165    0.9133 Ir  0  0  0  0  0  0  0  0  0  0  0  0
    0.8726   -2.2303    1.5405 H   0  0  0  0  0  0  0  0  0  0  0  0
    0.4263    0.5311   -0.6743 B   0  0  0  0  0  0  0  0  0  0  0  0
   -0.1229    0.1720   -1.8896 O   0  0  0  0  0  0  0  0  0  0  0  0
   -0.2107    1.3166   -2.7464 C   0  0  0  0  0  0  0  0  0  0  0  0
    0.1676    0.9192   -4.1708 C   0  0  0  0  0  0  0  0  0  0  0  0
    1.1210    0.4019   -4.1826 H   0  0  0  0  0  0  0  0  0  0  0  0
    0.2202    1.8005   -4.8047 H   0  0  0  0  0  0  0  0  0  0  0  0
   -0.5891    0.2460   -4.5661 H   0  0  0  0  0  0  0  0  0  0  0  0
   -1.6731    1.7836   -2.7215 C   0  0  0  0  0  0  0  0  0  0  0  0
   -1.8255    2.6307   -3.3836 H   0  0  0  0  0  0  0  0  0  0  0  0
   -2.3061    0.9604   -3.0465 H   0  0  0  0  0  0  0  0  0  0  0  0
   -1.9623    2.0522   -1.7074 H   0  0  0  0  0  0  0  0  0  0  0  0
    0.7631    2.3306   -2.0603 C   0  0  0  0  0  0  0  0  0  0  0  0
    0.8066    1.8527   -0.7073 O   0  0  0  0  0  0  0  0  0  0  0  0
    2.1916    2.2311   -2.6089 C   0  0  0  0  0  0  0  0  0  0  0  0
    2.5405    1.2067   -2.5031 H   0  0  0  0  0  0  0  0  0  0  0  0
    2.2422    2.5499   -3.6459 H   0  0  0  0  0  0  0  0  0  0  0  0
    2.8410    2.8664   -2.0114 H   0  0  0  0  0  0  0  0  0  0  0  0
    0.3053    3.7873   -2.0864 C   0  0  0  0  0  0  0  0  0  0  0  0
   -0.6295    3.9187   -1.5506 H   0  0  0  0  0  0  0  0  0  0  0  0
    1.0602    4.4060   -1.6072 H   0  0  0  0  0  0  0  0  0  0  0  0
    0.1834    4.1185   -3.1145 H   0  0  0  0  0  0  0  0  0  0  0  0
    1.6126    0.6464    1.8310 B   0  0  0  0  0  0  0  0  0  0  0  0
    2.9550    0.8849    1.6853 O   0  0  0  0  0  0  0  0  0  0  0  0
    3.3135    2.1369    2.2889 C   0  0  0  0  0  0  0  0  0  0  0  0
    4.6275    1.9761    3.0541 C   0  0  0  0  0  0  0  0  0  0  0  0
    4.5708    1.1519    3.7580 H   0  0  0  0  0  0  0  0  0  0  0  0
    5.4254    1.7613    2.3475 H   0  0  0  0  0  0  0  0  0  0  0  0
    4.8688    2.8929    3.5849 H   0  0  0  0  0  0  0  0  0  0  0  0
    3.5126    3.1295    1.1377 C   0  0  0  0  0  0  0  0  0  0  0  0
    3.7578    4.1217    1.5042 H   0  0  0  0  0  0  0  0  0  0  0  0
    4.3267    2.7716    0.5114 H   0  0  0  0  0  0  0  0  0  0  0  0
    2.6111    3.1558    0.5314 H   0  0  0  0  0  0  0  0  0  0  0  0
    2.0671    2.4693    3.1841 C   0  0  0  0  0  0  0  0  0  0  0  0
    1.0609    1.5805    2.6778 O   0  0  0  0  0  0  0  0  0  0  0  0
    1.5573    3.9058    3.0653 C   0  0  0  0  0  0  0  0  0  0  0  0
    1.2405    4.1182    2.0496 H   0  0  0  0  0  0  0  0  0  0  0  0
    0.7010    4.0314    3.7235 H   0  0  0  0  0  0  0  0  0  0  0  0
    2.3322    4.6063    3.3633 H   0  0  0  0  0  0  0  0  0  0  0  0
    2.2679    2.1340    4.6672 C   0  0  0  0  0  0  0  0  0  0  0  0
    2.5772    1.0995    4.7847 H   0  0  0  0  0  0  0  0  0  0  0  0
    3.0058    2.7904    5.1177 H   0  0  0  0  0  0  0  0  0  0  0  0
    1.3194    2.2606    5.1841 H   0  0  0  0  0  0  0  0  0  0  0  0
    2.2782   -1.3309    0.1741 B   0  0  0  0  0  0  0  0  0  0  0  0
    3.0942   -2.2967    0.7285 O   0  0  0  0  0  0  0  0  0  0  0  0
    4.3831   -2.2857    0.1015 C   0  0  0  0  0  0  0  0  0  0  0  0
    5.3284   -1.5489    1.0566 C   0  0  0  0  0  0  0  0  0  0  0  0
    4.9249   -0.5613    1.2625 H   0  0  0  0  0  0  0  0  0  0  0  0
    5.3654   -2.0964    1.9956 H   0  0  0  0  0  0  0  0  0  0  0  0
    6.3321   -1.4761    0.6497 H   0  0  0  0  0  0  0  0  0  0  0  0
    4.8701   -3.7228   -0.0832 C   0  0  0  0  0  0  0  0  0  0  0  0
    5.0049   -4.1738    0.8966 H   0  0  0  0  0  0  0  0  0  0  0  0
    5.8210   -3.7302   -0.6083 H   0  0  0  0  0  0  0  0  0  0  0  0
    4.1477   -4.3187   -0.6309 H   0  0  0  0  0  0  0  0  0  0  0  0
    4.1133   -1.4961   -1.2273 C   0  0  0  0  0  0  0  0  0  0  0  0
    2.8737   -0.8224   -0.9560 O   0  0  0  0  0  0  0  0  0  0  0  0
    5.1792   -0.4609   -1.5820 C   0  0  0  0  0  0  0  0  0  0  0  0
    6.1510   -0.9372   -1.6769 H   0  0  0  0  0  0  0  0  0  0  0  0
    4.9227    0.0062   -2.5295 H   0  0  0  0  0  0  0  0  0  0  0  0
    5.2202    0.3123   -0.8226 H   0  0  0  0  0  0  0  0  0  0  0  0
    3.8760   -2.4099   -2.4370 C   0  0  0  0  0  0  0  0  0  0  0  0
    3.0899   -3.1270   -2.2175 H   0  0  0  0  0  0  0  0  0  0  0  0
    3.5480   -1.7992   -3.2747 H   0  0  0  0  0  0  0  0  0  0  0  0
    4.7860   -2.9327   -2.7152 H   0  0  0  0  0  0  0  0  0  0  0  0
   -3.2798   -3.4255   -3.0799 H   0  0  0  0  0  0  0  0  0  0  0  0
   -5.1183    1.6139    1.2849 H   0  0  0  0  0  0  0  0  0  0  0  0
    0.2359   -1.6814    2.9603 C   0  0  0  0  0  0  0  0  0  0  0  0
   -1.3649   -2.1094    3.4936 S   0  0  0  0  0  0  0  0  0  0  0  0
    1.0707   -1.7357    4.0420 C   0  0  0  0  0  0  0  0  0  0  0  0
   -0.8703   -2.2702    5.1414 C   0  0  0  0  0  0  0  0  0  0  0  0
    0.4573   -2.0393    5.2831 C   0  0  0  0  0  0  0  0  0  0  0  0
    2.7650   -1.4672    3.8982 Cl  0  0  0  0  0  0  0  0  0  0  0  0
   -1.5942   -2.5201    5.8897 H   0  0  0  0  0  0  0  0  0  0  0  0
    0.9970   -2.0850    6.2105 H   0  0  0  0  0  0  0  0  0  0  0  0
  1  2  4  0  0  0  0
  2  3  4  0  0  0  0
  3  4  4  0  0  0  0
  4  5  4  0  0  0  0
  1  6  4  0  0  0  0
  5  6  4  0  0  0  0
  6  7  1  0  0  0  0
  5  8  1  0  0  0  0
  3  9  1  0  0  0  0
  2 10  1  0  0  0  0
 10 11  4  0  0  0  0
 11 12  4  0  0  0  0
 12 13  4  0  0  0  0
 13 14  4  0  0  0  0
 10 15  4  0  0  0  0
 14 15  4  0  0  0  0
 15 16  1  0  0  0  0
 13 17  1  0  0  0  0
 12 18  1  0  0  0  0
  1 19  1  0  0  0  0
 11 19  1  0  0  0  0
 19 20  1  0  0  0  0
 19 21  1  0  0  0  0
 21 22  1  0  0  0  0
 22 23  1  0  0  0  0
 23 24  1  0  0  0  0
 24 25  1  0  0  0  0
 24 26  1  0  0  0  0
 24 27  1  0  0  0  0
 23 28  1  0  0  0  0
 28 29  1  0  0  0  0
 28 30  1  0  0  0  0
 28 31  1  0  0  0  0
 23 32  1  0  0  0  0
 21 33  1  0  0  0  0
 32 33  1  0  0  0  0
 32 34  1  0  0  0  0
 34 35  1  0  0  0  0
 34 36  1  0  0  0  0
 34 37  1  0  0  0  0
 32 38  1  0  0  0  0
 38 39  1  0  0  0  0
 38 40  1  0  0  0  0
 38 41  1  0  0  0  0
 19 42  1  0  0  0  0
 42 43  1  0  0  0  0
 43 44  1  0  0  0  0
 44 45  1  0  0  0  0
 45 46  1  0  0  0  0
 45 47  1  0  0  0  0
 45 48  1  0  0  0  0
 44 49  1  0  0  0  0
 49 50  1  0  0  0  0
 49 51  1  0  0  0  0
 49 52  1  0  0  0  0
 44 53  1  0  0  0  0
 42 54  1  0  0  0  0
 53 54  1  0  0  0  0
 53 55  1  0  0  0  0
 55 56  1  0  0  0  0
 55 57  1  0  0  0  0
 55 58  1  0  0  0  0
 53 59  1  0  0  0  0
 59 60  1  0  0  0  0
 59 61  1  0  0  0  0
 59 62  1  0  0  0  0
 19 63  1  0  0  0  0
 63 64  1  0  0  0  0
 64 65  1  0  0  0  0
 65 66  1  0  0  0  0
 66 67  1  0  0  0  0
 66 68  1  0  0  0  0
 66 69  1  0  0  0  0
 65 70  1  0  0  0  0
 70 71  1  0  0  0  0
 70 72  1  0  0  0  0
 70 73  1  0  0  0  0
 65 74  1  0  0  0  0
 63 75  1  0  0  0  0
 74 75  1  0  0  0  0
 74 76  1  0  0  0  0
 76 77  1  0  0  0  0
 76 78  1  0  0  0  0
 76 79  1  0  0  0  0
 74 80  1  0  0  0  0
 80 81  1  0  0  0  0
 80 82  1  0  0  0  0
 80 83  1  0  0  0  0
  4 84  1  0  0  0  0
 14 85  1  0  0  0  0
 19 86  1  0  0  0  0
 20 86  1  0  0  0  0
 86 87  1  0  0  0  0
 86 88  2  0  0  0  0
 87 89  1  0  0  0  0
 88 90  4  0  0  0  0
 89 90  2  0  0  0  0
 88 91  1  0  0  0  0
 89 92  1  0  0  0  0
 90 93  1  0  0  0  0
M  END
