
  xtb     01142213333D
 xtb: 6.4.1 (1a32961)
103110  0     0  0            999 V2000
   -1.0228   -2.0051   -0.3080 N   0  0  0  0  0  0  0  0  0  0  0  0
   -2.2576   -1.4880   -0.4392 C   0  0  0  0  0  0  0  0  0  0  0  0
   -3.1860   -2.0580   -1.3189 C   0  0  0  0  0  0  0  0  0  0  0  0
   -2.8305   -3.1552   -2.0740 C   0  0  0  0  0  0  0  0  0  0  0  0
   -1.5455   -3.6714   -1.9358 C   0  0  0  0  0  0  0  0  0  0  0  0
   -0.6890   -3.0620   -1.0414 C   0  0  0  0  0  0  0  0  0  0  0  0
    0.3156   -3.4321   -0.8944 H   0  0  0  0  0  0  0  0  0  0  0  0
   -1.2231   -4.5266   -2.5067 H   0  0  0  0  0  0  0  0  0  0  0  0
   -4.1779   -1.6484   -1.4130 H   0  0  0  0  0  0  0  0  0  0  0  0
   -2.5563   -0.3104    0.3707 C   0  0  0  0  0  0  0  0  0  0  0  0
   -1.5746    0.1226    1.1877 N   0  0  0  0  0  0  0  0  0  0  0  0
   -1.7985    1.1909    1.9489 C   0  0  0  0  0  0  0  0  0  0  0  0
   -2.9857    1.8947    1.9415 C   0  0  0  0  0  0  0  0  0  0  0  0
   -4.0018    1.4732    1.0889 C   0  0  0  0  0  0  0  0  0  0  0  0
   -3.7807    0.3640    0.3000 C   0  0  0  0  0  0  0  0  0  0  0  0
   -4.5558    0.0268   -0.3674 H   0  0  0  0  0  0  0  0  0  0  0  0
   -3.1161    2.7493    2.5854 H   0  0  0  0  0  0  0  0  0  0  0  0
   -0.9766    1.4842    2.5845 H   0  0  0  0  0  0  0  0  0  0  0  0
    0.4215   -0.8165    0.9133 Ir  0  0  0  0  0  0  0  0  0  0  0  0
    0.8726   -2.2303    1.5405 H   0  0  0  0  0  0  0  0  0  0  0  0
    0.3429    0.6003   -0.6088 B   0  0  0  0  0  0  0  0  0  0  0  0
   -0.2291    0.2827   -1.8244 O   0  0  0  0  0  0  0  0  0  0  0  0
   -0.3735    1.4660   -2.6204 C   0  0  0  0  0  0  0  0  0  0  0  0
   -0.0323    1.1531   -4.0745 C   0  0  0  0  0  0  0  0  0  0  0  0
    0.9306    0.6584   -4.1430 H   0  0  0  0  0  0  0  0  0  0  0  0
   -0.0167    2.0687   -4.6600 H   0  0  0  0  0  0  0  0  0  0  0  0
   -0.7878    0.4867   -4.4835 H   0  0  0  0  0  0  0  0  0  0  0  0
   -1.8442    1.8963   -2.5255 C   0  0  0  0  0  0  0  0  0  0  0  0
   -2.0400    2.7597   -3.1542 H   0  0  0  0  0  0  0  0  0  0  0  0
   -2.4702    1.0687   -2.8528 H   0  0  0  0  0  0  0  0  0  0  0  0
   -2.1019    2.1279   -1.4939 H   0  0  0  0  0  0  0  0  0  0  0  0
    0.5960    2.4680   -1.9134 C   0  0  0  0  0  0  0  0  0  0  0  0
    0.6710    1.9365   -0.5823 O   0  0  0  0  0  0  0  0  0  0  0  0
    2.0153    2.4092   -2.4901 C   0  0  0  0  0  0  0  0  0  0  0  0
    2.3721    1.3824   -2.4536 H   0  0  0  0  0  0  0  0  0  0  0  0
    2.0466    2.7912   -3.5063 H   0  0  0  0  0  0  0  0  0  0  0  0
    2.6706    3.0095   -1.8639 H   0  0  0  0  0  0  0  0  0  0  0  0
    0.1152    3.9167   -1.8741 C   0  0  0  0  0  0  0  0  0  0  0  0
   -0.8033    4.0131   -1.3034 H   0  0  0  0  0  0  0  0  0  0  0  0
    0.8756    4.5320   -1.3993 H   0  0  0  0  0  0  0  0  0  0  0  0
   -0.0470    4.2808   -2.8853 H   0  0  0  0  0  0  0  0  0  0  0  0
    1.6360    0.6420    1.8001 B   0  0  0  0  0  0  0  0  0  0  0  0
    2.8874    1.0673    1.4685 O   0  0  0  0  0  0  0  0  0  0  0  0
    3.2626    2.2293    2.2235 C   0  0  0  0  0  0  0  0  0  0  0  0
    4.6311    1.9789    2.8613 C   0  0  0  0  0  0  0  0  0  0  0  0
    4.6342    1.0317    3.3918 H   0  0  0  0  0  0  0  0  0  0  0  0
    5.3828    1.9263    2.0780 H   0  0  0  0  0  0  0  0  0  0  0  0
    4.8910    2.7864    3.5391 H   0  0  0  0  0  0  0  0  0  0  0  0
    3.3750    3.3856    1.2238 C   0  0  0  0  0  0  0  0  0  0  0  0
    3.6086    4.3203    1.7243 H   0  0  0  0  0  0  0  0  0  0  0  0
    4.1700    3.1541    0.5189 H   0  0  0  0  0  0  0  0  0  0  0  0
    2.4478    3.4748    0.6656 H   0  0  0  0  0  0  0  0  0  0  0  0
    2.0831    2.3924    3.2556 C   0  0  0  0  0  0  0  0  0  0  0  0
    1.1442    1.3861    2.8498 O   0  0  0  0  0  0  0  0  0  0  0  0
    1.3705    3.7471    3.2005 C   0  0  0  0  0  0  0  0  0  0  0  0
    0.9456    3.9150    2.2161 H   0  0  0  0  0  0  0  0  0  0  0  0
    0.5607    3.7448    3.9266 H   0  0  0  0  0  0  0  0  0  0  0  0
    2.0572    4.5510    3.4476 H   0  0  0  0  0  0  0  0  0  0  0  0
    2.4725    2.1068    4.7104 C   0  0  0  0  0  0  0  0  0  0  0  0
    2.9451    1.1344    4.7993 H   0  0  0  0  0  0  0  0  0  0  0  0
    3.1425    2.8735    5.0872 H   0  0  0  0  0  0  0  0  0  0  0  0
    1.5689    2.1010    5.3158 H   0  0  0  0  0  0  0  0  0  0  0  0
    2.2782   -1.3309    0.1741 B   0  0  0  0  0  0  0  0  0  0  0  0
    3.1623   -2.1961    0.7753 O   0  0  0  0  0  0  0  0  0  0  0  0
    4.4117   -2.1878    0.0677 C   0  0  0  0  0  0  0  0  0  0  0  0
    5.3522   -1.2686    0.8503 C   0  0  0  0  0  0  0  0  0  0  0  0
    4.9081   -0.2798    0.9113 H   0  0  0  0  0  0  0  0  0  0  0  0
    5.4386   -1.6501    1.8641 H   0  0  0  0  0  0  0  0  0  0  0  0
    6.3364   -1.2237    0.3944 H   0  0  0  0  0  0  0  0  0  0  0  0
    4.9883   -3.6019    0.0349 C   0  0  0  0  0  0  0  0  0  0  0  0
    5.2307   -3.9010    1.0511 H   0  0  0  0  0  0  0  0  0  0  0  0
    5.8940   -3.6209   -0.5648 H   0  0  0  0  0  0  0  0  0  0  0  0
    4.2728   -4.3129   -0.3647 H   0  0  0  0  0  0  0  0  0  0  0  0
    4.0087   -1.5985   -1.3282 C   0  0  0  0  0  0  0  0  0  0  0  0
    2.7720   -0.9229   -1.0420 O   0  0  0  0  0  0  0  0  0  0  0  0
    5.0039   -0.6008   -1.9160 C   0  0  0  0  0  0  0  0  0  0  0  0
    5.9816   -1.0626   -2.0207 H   0  0  0  0  0  0  0  0  0  0  0  0
    4.6567   -0.2860   -2.8970 H   0  0  0  0  0  0  0  0  0  0  0  0
    5.0778    0.2766   -1.2830 H   0  0  0  0  0  0  0  0  0  0  0  0
    3.7009   -2.6803   -2.3724 C   0  0  0  0  0  0  0  0  0  0  0  0
    2.9820   -3.3909   -1.9740 H   0  0  0  0  0  0  0  0  0  0  0  0
    3.2572   -2.2058   -3.2442 H   0  0  0  0  0  0  0  0  0  0  0  0
    4.6055   -3.2004   -2.6724 H   0  0  0  0  0  0  0  0  0  0  0  0
   -3.5351   -3.6017   -2.7589 H   0  0  0  0  0  0  0  0  0  0  0  0
   -4.9425    2.0007    1.0443 H   0  0  0  0  0  0  0  0  0  0  0  0
    0.2359   -1.6814    2.9603 C   0  0  0  0  0  0  0  0  0  0  0  0
   -1.0675   -2.0371    3.2993 C   0  0  0  0  0  0  0  0  0  0  0  0
    1.1554   -1.5411    4.0124 C   0  0  0  0  0  0  0  0  0  0  0  0
   -1.4811   -2.1183    4.6264 C   0  0  0  0  0  0  0  0  0  0  0  0
   -1.7921   -2.2526    2.5289 H   0  0  0  0  0  0  0  0  0  0  0  0
    2.5362   -1.3334    3.8050 C   0  0  0  0  0  0  0  0  0  0  0  0
    0.7494   -1.6371    5.3510 C   0  0  0  0  0  0  0  0  0  0  0  0
   -2.8759   -2.4460    4.9872 C   0  0  0  0  0  0  0  0  0  0  0  0
   -0.5655   -1.8987    5.6599 C   0  0  0  0  0  0  0  0  0  0  0  0
    3.6787   -1.2099    3.8030 N   0  0  0  0  0  0  0  0  0  0  0  0
    1.4809   -1.5059    6.1349 H   0  0  0  0  0  0  0  0  0  0  0  0
   -3.2803   -2.5505    6.1270 O   0  0  0  0  0  0  0  0  0  0  0  0
   -3.6695   -2.6261    3.9232 O   0  0  0  0  0  0  0  0  0  0  0  0
   -0.9028   -1.9608    6.6829 H   0  0  0  0  0  0  0  0  0  0  0  0
   -5.0319   -2.9521    4.1890 C   0  0  0  0  0  0  0  0  0  0  0  0
   -5.4507   -3.2814    3.2421 H   0  0  0  0  0  0  0  0  0  0  0  0
   -5.5604   -2.0720    4.5606 H   0  0  0  0  0  0  0  0  0  0  0  0
   -5.0918   -3.7428    4.9391 H   0  0  0  0  0  0  0  0  0  0  0  0
  1  2  4  0  0  0  0
  2  3  4  0  0  0  0
  3  4  4  0  0  0  0
  4  5  4  0  0  0  0
  1  6  4  0  0  0  0
  5  6  4  0  0  0  0
  6  7  1  0  0  0  0
  5  8  1  0  0  0  0
  3  9  1  0  0  0  0
  2 10  1  0  0  0  0
 10 11  4  0  0  0  0
 11 12  4  0  0  0  0
 12 13  4  0  0  0  0
 13 14  4  0  0  0  0
 10 15  4  0  0  0  0
 14 15  4  0  0  0  0
 15 16  1  0  0  0  0
 13 17  1  0  0  0  0
 12 18  1  0  0  0  0
  1 19  1  0  0  0  0
 11 19  1  0  0  0  0
 19 20  1  0  0  0  0
 19 21  1  0  0  0  0
 21 22  1  0  0  0  0
 22 23  1  0  0  0  0
 23 24  1  0  0  0  0
 24 25  1  0  0  0  0
 24 26  1  0  0  0  0
 24 27  1  0  0  0  0
 23 28  1  0  0  0  0
 28 29  1  0  0  0  0
 28 30  1  0  0  0  0
 28 31  1  0  0  0  0
 23 32  1  0  0  0  0
 21 33  1  0  0  0  0
 32 33  1  0  0  0  0
 32 34  1  0  0  0  0
 34 35  1  0  0  0  0
 34 36  1  0  0  0  0
 34 37  1  0  0  0  0
 32 38  1  0  0  0  0
 38 39  1  0  0  0  0
 38 40  1  0  0  0  0
 38 41  1  0  0  0  0
 19 42  1  0  0  0  0
 42 43  1  0  0  0  0
 43 44  1  0  0  0  0
 44 45  1  0  0  0  0
 45 46  1  0  0  0  0
 45 47  1  0  0  0  0
 45 48  1  0  0  0  0
 44 49  1  0  0  0  0
 49 50  1  0  0  0  0
 49 51  1  0  0  0  0
 49 52  1  0  0  0  0
 44 53  1  0  0  0  0
 42 54  1  0  0  0  0
 53 54  1  0  0  0  0
 53 55  1  0  0  0  0
 55 56  1  0  0  0  0
 55 57  1  0  0  0  0
 55 58  1  0  0  0  0
 53 59  1  0  0  0  0
 59 60  1  0  0  0  0
 59 61  1  0  0  0  0
 59 62  1  0  0  0  0
 19 63  1  0  0  0  0
 63 64  1  0  0  0  0
 64 65  1  0  0  0  0
 65 66  1  0  0  0  0
 66 67  1  0  0  0  0
 66 68  1  0  0  0  0
 66 69  1  0  0  0  0
 65 70  1  0  0  0  0
 70 71  1  0  0  0  0
 70 72  1  0  0  0  0
 70 73  1  0  0  0  0
 65 74  1  0  0  0  0
 63 75  1  0  0  0  0
 74 75  1  0  0  0  0
 74 76  1  0  0  0  0
 76 77  1  0  0  0  0
 76 78  1  0  0  0  0
 76 79  1  0  0  0  0
 74 80  1  0  0  0  0
 80 81  1  0  0  0  0
 80 82  1  0  0  0  0
 80 83  1  0  0  0  0
  4 84  1  0  0  0  0
 14 85  1  0  0  0  0
 19 86  1  0  0  0  0
 20 86  1  0  0  0  0
 86 87  4  0  0  0  0
 86 88  4  0  0  0  0
 87 89  4  0  0  0  0
 87 90  1  0  0  0  0
 88 91  1  0  0  0  0
 88 92  4  0  0  0  0
 89 93  1  0  0  0  0
 89 94  4  0  0  0  0
 92 94  4  0  0  0  0
 91 95  3  0  0  0  0
 92 96  1  0  0  0  0
 93 97  2  0  0  0  0
 93 98  1  0  0  0  0
 94 99  1  0  0  0  0
 98100  1  0  0  0  0
100101  1  0  0  0  0
100102  1  0  0  0  0
100103  1  0  0  0  0
M  END
