
  xtb     10082107303D
 xtb: 6.4.0 (f63f532)
103110  0     0  0            999 V2000
   -0.9342   -1.9598   -0.3863 N   0  0  0  0  0  0  0  0  0  0  0  0
   -2.1209   -1.3770   -0.6348 C   0  0  0  0  0  0  0  0  0  0  0  0
   -2.9920   -1.9021   -1.5976 C   0  0  0  0  0  0  0  0  0  0  0  0
   -2.6382   -3.0323   -2.3011 C   0  0  0  0  0  0  0  0  0  0  0  0
   -1.4102   -3.6287   -2.0272 C   0  0  0  0  0  0  0  0  0  0  0  0
   -0.6037   -3.0521   -1.0681 C   0  0  0  0  0  0  0  0  0  0  0  0
    0.3578   -3.4817   -0.8234 H   0  0  0  0  0  0  0  0  0  0  0  0
   -1.0938   -4.5181   -2.5478 H   0  0  0  0  0  0  0  0  0  0  0  0
   -3.9416   -1.4327   -1.7950 H   0  0  0  0  0  0  0  0  0  0  0  0
   -2.4349   -0.1904    0.1510 C   0  0  0  0  0  0  0  0  0  0  0  0
   -1.5168    0.1874    1.0659 N   0  0  0  0  0  0  0  0  0  0  0  0
   -1.7794    1.2433    1.8330 C   0  0  0  0  0  0  0  0  0  0  0  0
   -2.9334    1.9935    1.7317 C   0  0  0  0  0  0  0  0  0  0  0  0
   -3.8746    1.6380    0.7697 C   0  0  0  0  0  0  0  0  0  0  0  0
   -3.6182    0.5381   -0.0210 C   0  0  0  0  0  0  0  0  0  0  0  0
   -4.3360    0.2482   -0.7707 H   0  0  0  0  0  0  0  0  0  0  0  0
   -3.0943    2.8353    2.3858 H   0  0  0  0  0  0  0  0  0  0  0  0
   -1.0137    1.4969    2.5497 H   0  0  0  0  0  0  0  0  0  0  0  0
    0.4215   -0.8165    0.9133 Ir  0  0  0  0  0  0  0  0  0  0  0  0
    0.8726   -2.2303    1.5405 H   0  0  0  0  0  0  0  0  0  0  0  0
    0.5256    0.5589   -0.6565 B   0  0  0  0  0  0  0  0  0  0  0  0
   -0.0439    0.2369   -1.8732 O   0  0  0  0  0  0  0  0  0  0  0  0
   -0.0156    1.3690   -2.7493 C   0  0  0  0  0  0  0  0  0  0  0  0
    0.3605    0.9098   -4.1562 C   0  0  0  0  0  0  0  0  0  0  0  0
    1.2721    0.3220   -4.1350 H   0  0  0  0  0  0  0  0  0  0  0  0
    0.4914    1.7679   -4.8103 H   0  0  0  0  0  0  0  0  0  0  0  0
   -0.4371    0.2849   -4.5507 H   0  0  0  0  0  0  0  0  0  0  0  0
   -1.4339    1.9559   -2.7726 C   0  0  0  0  0  0  0  0  0  0  0  0
   -1.4980    2.7985   -3.4545 H   0  0  0  0  0  0  0  0  0  0  0  0
   -2.1243    1.1809   -3.0995 H   0  0  0  0  0  0  0  0  0  0  0  0
   -1.7266    2.2687   -1.7725 H   0  0  0  0  0  0  0  0  0  0  0  0
    1.0249    2.3126   -2.0579 C   0  0  0  0  0  0  0  0  0  0  0  0
    1.0281    1.8374   -0.7030 O   0  0  0  0  0  0  0  0  0  0  0  0
    2.4460    2.1164   -2.5992 C   0  0  0  0  0  0  0  0  0  0  0  0
    2.7298    1.0745   -2.4759 H   0  0  0  0  0  0  0  0  0  0  0  0
    2.5191    2.4153   -3.6408 H   0  0  0  0  0  0  0  0  0  0  0  0
    3.1323    2.7198   -2.0097 H   0  0  0  0  0  0  0  0  0  0  0  0
    0.6701    3.7980   -2.0883 C   0  0  0  0  0  0  0  0  0  0  0  0
   -0.2564    3.9955   -1.5587 H   0  0  0  0  0  0  0  0  0  0  0  0
    1.4634    4.3620   -1.6037 H   0  0  0  0  0  0  0  0  0  0  0  0
    0.5794    4.1365   -3.1172 H   0  0  0  0  0  0  0  0  0  0  0  0
    1.6260    0.6063    1.8662 B   0  0  0  0  0  0  0  0  0  0  0  0
    2.9994    0.6095    1.9440 O   0  0  0  0  0  0  0  0  0  0  0  0
    3.4656    1.8785    2.4244 C   0  0  0  0  0  0  0  0  0  0  0  0
    4.6489    1.6739    3.3691 C   0  0  0  0  0  0  0  0  0  0  0  0
    4.4052    0.9732    4.1610 H   0  0  0  0  0  0  0  0  0  0  0  0
    5.4883    1.2698    2.8087 H   0  0  0  0  0  0  0  0  0  0  0  0
    4.9460    2.6235    3.8058 H   0  0  0  0  0  0  0  0  0  0  0  0
    3.9226    2.6655    1.1905 C   0  0  0  0  0  0  0  0  0  0  0  0
    4.2786    3.6563    1.4563 H   0  0  0  0  0  0  0  0  0  0  0  0
    4.7293    2.1173    0.7092 H   0  0  0  0  0  0  0  0  0  0  0  0
    3.0960    2.7290    0.4876 H   0  0  0  0  0  0  0  0  0  0  0  0
    2.1840    2.4856    3.0913 C   0  0  0  0  0  0  0  0  0  0  0  0
    1.1240    1.7179    2.5022 O   0  0  0  0  0  0  0  0  0  0  0  0
    1.9502    3.9665    2.7987 C   0  0  0  0  0  0  0  0  0  0  0  0
    1.7927    4.1239    1.7370 H   0  0  0  0  0  0  0  0  0  0  0  0
    1.0603    4.2978    3.3281 H   0  0  0  0  0  0  0  0  0  0  0  0
    2.7986    4.5547    3.1373 H   0  0  0  0  0  0  0  0  0  0  0  0
    2.1259    2.2548    4.6062 C   0  0  0  0  0  0  0  0  0  0  0  0
    2.2532    1.1998    4.8305 H   0  0  0  0  0  0  0  0  0  0  0  0
    2.8897    2.8300    5.1200 H   0  0  0  0  0  0  0  0  0  0  0  0
    1.1483    2.5606    4.9721 H   0  0  0  0  0  0  0  0  0  0  0  0
    2.2782   -1.3309    0.1741 B   0  0  0  0  0  0  0  0  0  0  0  0
    3.0231   -2.3703    0.6990 O   0  0  0  0  0  0  0  0  0  0  0  0
    4.3186   -2.4200    0.0890 C   0  0  0  0  0  0  0  0  0  0  0  0
    5.2949   -1.7780    1.0804 C   0  0  0  0  0  0  0  0  0  0  0  0
    4.9440   -0.7792    1.3235 H   0  0  0  0  0  0  0  0  0  0  0  0
    5.2922   -2.3647    1.9959 H   0  0  0  0  0  0  0  0  0  0  0  0
    6.3050   -1.7459    0.6843 H   0  0  0  0  0  0  0  0  0  0  0  0
    4.7167   -3.8775   -0.1428 C   0  0  0  0  0  0  0  0  0  0  0  0
    4.8096   -4.3714    0.8209 H   0  0  0  0  0  0  0  0  0  0  0  0
    5.6722   -3.9268   -0.6574 H   0  0  0  0  0  0  0  0  0  0  0  0
    3.9657   -4.4062   -0.7202 H   0  0  0  0  0  0  0  0  0  0  0  0
    4.1149   -1.5698   -1.2125 C   0  0  0  0  0  0  0  0  0  0  0  0
    2.9308   -0.8096   -0.9180 O   0  0  0  0  0  0  0  0  0  0  0  0
    5.2645   -0.6193   -1.5397 C   0  0  0  0  0  0  0  0  0  0  0  0
    6.1901   -1.1770   -1.6527 H   0  0  0  0  0  0  0  0  0  0  0  0
    5.0505   -0.1028   -2.4719 H   0  0  0  0  0  0  0  0  0  0  0  0
    5.3770    0.1238   -0.7580 H   0  0  0  0  0  0  0  0  0  0  0  0
    3.8019   -2.4249   -2.4481 C   0  0  0  0  0  0  0  0  0  0  0  0
    2.9587   -3.0797   -2.2458 H   0  0  0  0  0  0  0  0  0  0  0  0
    3.5238   -1.7650   -3.2666 H   0  0  0  0  0  0  0  0  0  0  0  0
    4.6648   -3.0128   -2.7459 H   0  0  0  0  0  0  0  0  0  0  0  0
   -3.3008   -3.4461   -3.0461 H   0  0  0  0  0  0  0  0  0  0  0  0
   -4.7840    2.2062    0.6451 H   0  0  0  0  0  0  0  0  0  0  0  0
    0.2359   -1.6814    2.9603 C   0  0  0  0  0  0  0  0  0  0  0  0
   -1.0460   -2.0193    3.4305 C   0  0  0  0  0  0  0  0  0  0  0  0
    1.2590   -1.5575    3.8931 C   0  0  0  0  0  0  0  0  0  0  0  0
   -1.2909   -2.1158    4.7976 C   0  0  0  0  0  0  0  0  0  0  0  0
   -2.0070   -2.2374    2.4842 O   0  0  0  0  0  0  0  0  0  0  0  0
    0.9974   -1.6667    5.2464 C   0  0  0  0  0  0  0  0  0  0  0  0
    2.2639   -1.3719    3.5468 H   0  0  0  0  0  0  0  0  0  0  0  0
   -0.2718   -1.9290    5.7180 C   0  0  0  0  0  0  0  0  0  0  0  0
   -2.2773   -2.3368    5.1737 H   0  0  0  0  0  0  0  0  0  0  0  0
   -3.2984   -2.6340    2.9080 C   0  0  0  0  0  0  0  0  0  0  0  0
    2.4306   -1.4528    6.4951 Br  0  0  0  0  0  0  0  0  0  0  0  0
   -0.4708   -2.0015    6.7759 H   0  0  0  0  0  0  0  0  0  0  0  0
   -4.1602   -2.8943    1.6827 C   0  0  0  0  0  0  0  0  0  0  0  0
   -3.7519   -1.8427    3.5222 H   0  0  0  0  0  0  0  0  0  0  0  0
   -3.2252   -3.5497    3.5117 H   0  0  0  0  0  0  0  0  0  0  0  0
   -3.6763   -3.6226    1.0377 H   0  0  0  0  0  0  0  0  0  0  0  0
   -4.3037   -1.9747    1.1235 H   0  0  0  0  0  0  0  0  0  0  0  0
   -5.1271   -3.2777    1.9955 H   0  0  0  0  0  0  0  0  0  0  0  0
  1  2  4  0  0  0  0
  2  3  4  0  0  0  0
  3  4  4  0  0  0  0
  4  5  4  0  0  0  0
  1  6  4  0  0  0  0
  5  6  4  0  0  0  0
  6  7  1  0  0  0  0
  5  8  1  0  0  0  0
  3  9  1  0  0  0  0
  2 10  1  0  0  0  0
 10 11  4  0  0  0  0
 11 12  4  0  0  0  0
 12 13  4  0  0  0  0
 13 14  4  0  0  0  0
 10 15  4  0  0  0  0
 14 15  4  0  0  0  0
 15 16  1  0  0  0  0
 13 17  1  0  0  0  0
 12 18  1  0  0  0  0
  1 19  1  0  0  0  0
 11 19  1  0  0  0  0
 19 20  1  0  0  0  0
 19 21  1  0  0  0  0
 21 22  1  0  0  0  0
 22 23  1  0  0  0  0
 23 24  1  0  0  0  0
 24 25  1  0  0  0  0
 24 26  1  0  0  0  0
 24 27  1  0  0  0  0
 23 28  1  0  0  0  0
 28 29  1  0  0  0  0
 28 30  1  0  0  0  0
 28 31  1  0  0  0  0
 23 32  1  0  0  0  0
 21 33  1  0  0  0  0
 32 33  1  0  0  0  0
 32 34  1  0  0  0  0
 34 35  1  0  0  0  0
 34 36  1  0  0  0  0
 34 37  1  0  0  0  0
 32 38  1  0  0  0  0
 38 39  1  0  0  0  0
 38 40  1  0  0  0  0
 38 41  1  0  0  0  0
 19 42  1  0  0  0  0
 42 43  1  0  0  0  0
 43 44  1  0  0  0  0
 44 45  1  0  0  0  0
 45 46  1  0  0  0  0
 45 47  1  0  0  0  0
 45 48  1  0  0  0  0
 44 49  1  0  0  0  0
 49 50  1  0  0  0  0
 49 51  1  0  0  0  0
 49 52  1  0  0  0  0
 44 53  1  0  0  0  0
 42 54  1  0  0  0  0
 53 54  1  0  0  0  0
 53 55  1  0  0  0  0
 55 56  1  0  0  0  0
 55 57  1  0  0  0  0
 55 58  1  0  0  0  0
 53 59  1  0  0  0  0
 59 60  1  0  0  0  0
 59 61  1  0  0  0  0
 59 62  1  0  0  0  0
 19 63  1  0  0  0  0
 63 64  1  0  0  0  0
 64 65  1  0  0  0  0
 65 66  1  0  0  0  0
 66 67  1  0  0  0  0
 66 68  1  0  0  0  0
 66 69  1  0  0  0  0
 65 70  1  0  0  0  0
 70 71  1  0  0  0  0
 70 72  1  0  0  0  0
 70 73  1  0  0  0  0
 65 74  1  0  0  0  0
 63 75  1  0  0  0  0
 74 75  1  0  0  0  0
 74 76  1  0  0  0  0
 76 77  1  0  0  0  0
 76 78  1  0  0  0  0
 76 79  1  0  0  0  0
 74 80  1  0  0  0  0
 80 81  1  0  0  0  0
 80 82  1  0  0  0  0
 80 83  1  0  0  0  0
  4 84  1  0  0  0  0
 14 85  1  0  0  0  0
 19 86  1  0  0  0  0
 20 86  1  0  0  0  0
 86 87  4  0  0  0  0
 86 88  4  0  0  0  0
 87 89  4  0  0  0  0
 87 90  1  0  0  0  0
 88 91  4  0  0  0  0
 88 92  1  0  0  0  0
 89 93  4  0  0  0  0
 91 93  4  0  0  0  0
 89 94  1  0  0  0  0
 90 95  1  0  0  0  0
 91 96  1  0  0  0  0
 93 97  1  0  0  0  0
 95 98  1  0  0  0  0
 95 99  1  0  0  0  0
 95100  1  0  0  0  0
 98101  1  0  0  0  0
 98102  1  0  0  0  0
 98103  1  0  0  0  0
M  END
