   12
Created with kallisto
C     -0.0767   -1.1400   -0.0031
N      0.7006   -0.0137   -0.0104
C     -1.3963   -0.7432   -0.0041
C      2.1446    0.0123   -0.0319
C     -0.1010    1.0972   -0.0025
C     -1.4116    0.6722   -0.0040
H     -2.2546   -1.4025   -0.0048
H      2.5303   -1.0085    0.0277
H      2.4935    0.5926    0.8258
H      2.4643    0.4783   -0.9674
H      0.3196    2.0944   -0.0017
H     -2.2842    1.3125   -0.0040
