
  xtb     10082107143D
 xtb: 6.4.0 (f63f532)
 14 14  0     0  0            999 V2000
   -1.1894   -1.1775   -0.0016 C   0  0  0  0  0  0  0  0  0  0  0  0
   -1.7954    0.0714   -0.0026 C   0  0  0  0  0  0  0  0  0  0  0  0
   -0.9769    1.1887   -0.0034 C   0  0  0  0  0  0  0  0  0  0  0  0
    0.3452    1.1260   -0.0027 N   0  0  0  0  0  0  0  0  0  0  0  0
    0.9307   -0.0654   -0.0016 C   0  0  0  0  0  0  0  0  0  0  0  0
    2.4275   -0.0851   -0.0018 C   0  0  0  0  0  0  0  0  0  0  0  0
    0.1916   -1.2487   -0.0011 C   0  0  0  0  0  0  0  0  0  0  0  0
   -1.7859   -2.0788   -0.0009 H   0  0  0  0  0  0  0  0  0  0  0  0
   -2.8694    0.1734   -0.0023 H   0  0  0  0  0  0  0  0  0  0  0  0
   -1.3921    2.1889   -0.0032 H   0  0  0  0  0  0  0  0  0  0  0  0
    2.8043    0.9330   -0.0080 H   0  0  0  0  0  0  0  0  0  0  0  0
    2.7971   -0.6124   -0.8795 H   0  0  0  0  0  0  0  0  0  0  0  0
    2.7970   -0.6010    0.8828 H   0  0  0  0  0  0  0  0  0  0  0  0
    0.6992   -2.2016   -0.0008 H   0  0  0  0  0  0  0  0  0  0  0  0
  1  2  4  0  0  0  0
  2  3  4  0  0  0  0
  3  4  4  0  0  0  0
  4  5  4  0  0  0  0
  5  6  1  0  0  0  0
  1  7  4  0  0  0  0
  5  7  4  0  0  0  0
  1  8  1  0  0  0  0
  2  9  1  0  0  0  0
  3 10  1  0  0  0  0
  6 11  1  0  0  0  0
  6 12  1  0  0  0  0
  6 13  1  0  0  0  0
  7 14  1  0  0  0  0
M  END
