
  xtb     01142213573D
 xtb: 6.4.1 (1a32961)
105113  0     0  0            999 V2000
   -0.9449   -2.0307   -0.3600 N   0  0  0  0  0  0  0  0  0  0  0  0
   -2.2035   -1.5698   -0.4553 C   0  0  0  0  0  0  0  0  0  0  0  0
   -3.0767   -2.0516   -1.4361 C   0  0  0  0  0  0  0  0  0  0  0  0
   -2.6499   -3.0271   -2.3121 C   0  0  0  0  0  0  0  0  0  0  0  0
   -1.3496   -3.5066   -2.1918 C   0  0  0  0  0  0  0  0  0  0  0  0
   -0.5433   -2.9722   -1.2072 C   0  0  0  0  0  0  0  0  0  0  0  0
    0.4765   -3.3068   -1.0804 H   0  0  0  0  0  0  0  0  0  0  0  0
   -0.9741   -4.2717   -2.8514 H   0  0  0  0  0  0  0  0  0  0  0  0
   -4.0748   -1.6552   -1.5246 H   0  0  0  0  0  0  0  0  0  0  0  0
   -2.5884   -0.5333    0.4991 C   0  0  0  0  0  0  0  0  0  0  0  0
   -1.5995    0.0046    1.2367 N   0  0  0  0  0  0  0  0  0  0  0  0
   -1.8981    0.9646    2.1074 C   0  0  0  0  0  0  0  0  0  0  0  0
   -3.1799    1.4368    2.3079 C   0  0  0  0  0  0  0  0  0  0  0  0
   -4.2162    0.8773    1.5684 C   0  0  0  0  0  0  0  0  0  0  0  0
   -3.9135   -0.1128    0.6576 C   0  0  0  0  0  0  0  0  0  0  0  0
   -4.7038   -0.5706    0.0865 H   0  0  0  0  0  0  0  0  0  0  0  0
   -3.3660    2.2145    3.0310 H   0  0  0  0  0  0  0  0  0  0  0  0
   -1.0590    1.3646    2.6575 H   0  0  0  0  0  0  0  0  0  0  0  0
    0.4215   -0.8165    0.9133 Ir  0  0  0  0  0  0  0  0  0  0  0  0
    0.8726   -2.2303    1.5405 H   0  0  0  0  0  0  0  0  0  0  0  0
    0.3238    0.6042   -0.6087 B   0  0  0  0  0  0  0  0  0  0  0  0
   -0.4064    0.3396   -1.7550 O   0  0  0  0  0  0  0  0  0  0  0  0
   -0.6279    1.5531   -2.4815 C   0  0  0  0  0  0  0  0  0  0  0  0
   -0.5304    1.2864   -3.9810 C   0  0  0  0  0  0  0  0  0  0  0  0
    0.3911    0.7672   -4.2218 H   0  0  0  0  0  0  0  0  0  0  0  0
   -0.5765    2.2233   -4.5301 H   0  0  0  0  0  0  0  0  0  0  0  0
   -1.3642    0.6584   -4.2860 H   0  0  0  0  0  0  0  0  0  0  0  0
   -2.0503    2.0239   -2.1426 C   0  0  0  0  0  0  0  0  0  0  0  0
   -2.3102    2.9201   -2.6980 H   0  0  0  0  0  0  0  0  0  0  0  0
   -2.7502    1.2312   -2.4001 H   0  0  0  0  0  0  0  0  0  0  0  0
   -2.1357    2.2155   -1.0747 H   0  0  0  0  0  0  0  0  0  0  0  0
    0.4726    2.4986   -1.9009 C   0  0  0  0  0  0  0  0  0  0  0  0
    0.7249    1.9206   -0.6123 O   0  0  0  0  0  0  0  0  0  0  0  0
    1.7871    2.4164   -2.6860 C   0  0  0  0  0  0  0  0  0  0  0  0
    2.1058    1.3781   -2.7414 H   0  0  0  0  0  0  0  0  0  0  0  0
    1.6806    2.8367   -3.6818 H   0  0  0  0  0  0  0  0  0  0  0  0
    2.5508    2.9701   -2.1449 H   0  0  0  0  0  0  0  0  0  0  0  0
    0.0557    3.9597   -1.7485 C   0  0  0  0  0  0  0  0  0  0  0  0
   -0.7588    4.0648   -1.0385 H   0  0  0  0  0  0  0  0  0  0  0  0
    0.9020    4.5356   -1.3822 H   0  0  0  0  0  0  0  0  0  0  0  0
   -0.2495    4.3608   -2.7116 H   0  0  0  0  0  0  0  0  0  0  0  0
    1.5880    0.6442    1.8448 B   0  0  0  0  0  0  0  0  0  0  0  0
    2.9345    0.8777    1.7199 O   0  0  0  0  0  0  0  0  0  0  0  0
    3.2754    2.1345    2.3245 C   0  0  0  0  0  0  0  0  0  0  0  0
    4.6267    2.0269    3.0290 C   0  0  0  0  0  0  0  0  0  0  0  0
    4.6520    1.1729    3.6976 H   0  0  0  0  0  0  0  0  0  0  0  0
    5.4083    1.8966    2.2849 H   0  0  0  0  0  0  0  0  0  0  0  0
    4.8279    2.9353    3.5904 H   0  0  0  0  0  0  0  0  0  0  0  0
    3.3716    3.1548    1.1841 C   0  0  0  0  0  0  0  0  0  0  0  0
    3.6111    4.1469    1.5550 H   0  0  0  0  0  0  0  0  0  0  0  0
    4.1529    2.8336    0.4991 H   0  0  0  0  0  0  0  0  0  0  0  0
    2.4327    3.1642    0.6366 H   0  0  0  0  0  0  0  0  0  0  0  0
    2.0577    2.3973    3.2727 C   0  0  0  0  0  0  0  0  0  0  0  0
    1.0331    1.5682    2.7060 O   0  0  0  0  0  0  0  0  0  0  0  0
    1.5741    3.8453    3.3137 C   0  0  0  0  0  0  0  0  0  0  0  0
    1.2215    4.1593    2.3370 H   0  0  0  0  0  0  0  0  0  0  0  0
    0.7497    3.9269    4.0179 H   0  0  0  0  0  0  0  0  0  0  0  0
    2.3789    4.4984    3.6399 H   0  0  0  0  0  0  0  0  0  0  0  0
    2.2953    1.9007    4.7047 C   0  0  0  0  0  0  0  0  0  0  0  0
    2.6089    0.8605    4.6895 H   0  0  0  0  0  0  0  0  0  0  0  0
    3.0404    2.5056    5.2119 H   0  0  0  0  0  0  0  0  0  0  0  0
    1.3583    1.9608    5.2541 H   0  0  0  0  0  0  0  0  0  0  0  0
    2.2782   -1.3309    0.1741 B   0  0  0  0  0  0  0  0  0  0  0  0
    3.1879   -2.1842    0.7584 O   0  0  0  0  0  0  0  0  0  0  0  0
    4.4273   -2.1680    0.0361 C   0  0  0  0  0  0  0  0  0  0  0  0
    5.4022   -1.3174    0.8568 C   0  0  0  0  0  0  0  0  0  0  0  0
    4.9539   -0.3448    1.0365 H   0  0  0  0  0  0  0  0  0  0  0  0
    5.5549   -1.7994    1.8191 H   0  0  0  0  0  0  0  0  0  0  0  0
    6.3602   -1.2144    0.3569 H   0  0  0  0  0  0  0  0  0  0  0  0
    4.9683   -3.5940   -0.0725 C   0  0  0  0  0  0  0  0  0  0  0  0
    5.1887   -3.9617    0.9262 H   0  0  0  0  0  0  0  0  0  0  0  0
    5.8811   -3.6037   -0.6614 H   0  0  0  0  0  0  0  0  0  0  0  0
    4.2397   -4.2608   -0.5213 H   0  0  0  0  0  0  0  0  0  0  0  0
    4.0292   -1.5038   -1.3308 C   0  0  0  0  0  0  0  0  0  0  0  0
    2.7626   -0.8958   -1.0377 O   0  0  0  0  0  0  0  0  0  0  0  0
    4.9910   -0.4241   -1.8253 C   0  0  0  0  0  0  0  0  0  0  0  0
    5.9846   -0.8381   -1.9728 H   0  0  0  0  0  0  0  0  0  0  0  0
    4.6276   -0.0357   -2.7734 H   0  0  0  0  0  0  0  0  0  0  0  0
    5.0332    0.3967   -1.1179 H   0  0  0  0  0  0  0  0  0  0  0  0
    3.7964   -2.5189   -2.4582 C   0  0  0  0  0  0  0  0  0  0  0  0
    3.0785   -3.2721   -2.1462 H   0  0  0  0  0  0  0  0  0  0  0  0
    3.3814   -1.9955   -3.3160 H   0  0  0  0  0  0  0  0  0  0  0  0
    4.7264   -2.9964   -2.7508 H   0  0  0  0  0  0  0  0  0  0  0  0
   -3.3107   -3.4057   -3.0770 H   0  0  0  0  0  0  0  0  0  0  0  0
   -5.2353    1.2055    1.7052 H   0  0  0  0  0  0  0  0  0  0  0  0
    0.2359   -1.6814    2.9603 C   0  0  0  0  0  0  0  0  0  0  0  0
   -1.3551   -2.0681    3.5431 S   0  0  0  0  0  0  0  0  0  0  0  0
    1.1224   -1.6905    4.0002 C   0  0  0  0  0  0  0  0  0  0  0  0
   -0.8031   -2.1504    5.1959 C   0  0  0  0  0  0  0  0  0  0  0  0
    0.5392   -1.9271    5.2636 C   0  0  0  0  0  0  0  0  0  0  0  0
    2.1752   -1.5264    3.8531 H   0  0  0  0  0  0  0  0  0  0  0  0
   -1.7597   -2.4393    6.2884 C   0  0  0  0  0  0  0  0  0  0  0  0
    1.0978   -1.9496    6.1842 H   0  0  0  0  0  0  0  0  0  0  0  0
   -1.1162   -1.9609    7.9293 S   0  0  0  0  0  0  0  0  0  0  0  0
   -3.4019   -1.6784    6.0017 S   0  0  0  0  0  0  0  0  0  0  0  0
   -1.9735   -3.5087    6.3768 H   0  0  0  0  0  0  0  0  0  0  0  0
   -0.9897   -0.1555    7.6770 C   0  0  0  0  0  0  0  0  0  0  0  0
   -2.8956    0.0745    6.0353 C   0  0  0  0  0  0  0  0  0  0  0  0
   -2.3378    0.4860    7.3896 C   0  0  0  0  0  0  0  0  0  0  0  0
   -0.2886    0.0156    6.8585 H   0  0  0  0  0  0  0  0  0  0  0  0
   -0.5654    0.2204    8.6064 H   0  0  0  0  0  0  0  0  0  0  0  0
   -2.1662    0.2235    5.2365 H   0  0  0  0  0  0  0  0  0  0  0  0
   -3.8046    0.6264    5.8030 H   0  0  0  0  0  0  0  0  0  0  0  0
   -2.2115    1.5716    7.3984 H   0  0  0  0  0  0  0  0  0  0  0  0
   -3.0475    0.2142    8.1739 H   0  0  0  0  0  0  0  0  0  0  0  0
  1  2  4  0  0  0  0
  2  3  4  0  0  0  0
  3  4  4  0  0  0  0
  4  5  4  0  0  0  0
  1  6  4  0  0  0  0
  5  6  4  0  0  0  0
  6  7  1  0  0  0  0
  5  8  1  0  0  0  0
  3  9  1  0  0  0  0
  2 10  1  0  0  0  0
 10 11  4  0  0  0  0
 11 12  4  0  0  0  0
 12 13  4  0  0  0  0
 13 14  4  0  0  0  0
 10 15  4  0  0  0  0
 14 15  4  0  0  0  0
 15 16  1  0  0  0  0
 13 17  1  0  0  0  0
 12 18  1  0  0  0  0
  1 19  1  0  0  0  0
 11 19  1  0  0  0  0
 19 20  1  0  0  0  0
 19 21  1  0  0  0  0
 21 22  1  0  0  0  0
 22 23  1  0  0  0  0
 23 24  1  0  0  0  0
 24 25  1  0  0  0  0
 24 26  1  0  0  0  0
 24 27  1  0  0  0  0
 23 28  1  0  0  0  0
 28 29  1  0  0  0  0
 28 30  1  0  0  0  0
 28 31  1  0  0  0  0
 23 32  1  0  0  0  0
 21 33  1  0  0  0  0
 32 33  1  0  0  0  0
 32 34  1  0  0  0  0
 34 35  1  0  0  0  0
 34 36  1  0  0  0  0
 34 37  1  0  0  0  0
 32 38  1  0  0  0  0
 38 39  1  0  0  0  0
 38 40  1  0  0  0  0
 38 41  1  0  0  0  0
 19 42  1  0  0  0  0
 42 43  1  0  0  0  0
 43 44  1  0  0  0  0
 44 45  1  0  0  0  0
 45 46  1  0  0  0  0
 45 47  1  0  0  0  0
 45 48  1  0  0  0  0
 44 49  1  0  0  0  0
 49 50  1  0  0  0  0
 49 51  1  0  0  0  0
 49 52  1  0  0  0  0
 44 53  1  0  0  0  0
 42 54  1  0  0  0  0
 53 54  1  0  0  0  0
 53 55  1  0  0  0  0
 55 56  1  0  0  0  0
 55 57  1  0  0  0  0
 55 58  1  0  0  0  0
 53 59  1  0  0  0  0
 59 60  1  0  0  0  0
 59 61  1  0  0  0  0
 59 62  1  0  0  0  0
 19 63  1  0  0  0  0
 63 64  1  0  0  0  0
 64 65  1  0  0  0  0
 65 66  1  0  0  0  0
 66 67  1  0  0  0  0
 66 68  1  0  0  0  0
 66 69  1  0  0  0  0
 65 70  1  0  0  0  0
 70 71  1  0  0  0  0
 70 72  1  0  0  0  0
 70 73  1  0  0  0  0
 65 74  1  0  0  0  0
 63 75  1  0  0  0  0
 74 75  1  0  0  0  0
 74 76  1  0  0  0  0
 76 77  1  0  0  0  0
 76 78  1  0  0  0  0
 76 79  1  0  0  0  0
 74 80  1  0  0  0  0
 80 81  1  0  0  0  0
 80 82  1  0  0  0  0
 80 83  1  0  0  0  0
  4 84  1  0  0  0  0
 14 85  1  0  0  0  0
 19 86  1  0  0  0  0
 20 86  1  0  0  0  0
 86 87  1  0  0  0  0
 86 88  2  0  0  0  0
 87 89  1  0  0  0  0
 88 90  4  0  0  0  0
 89 90  2  0  0  0  0
 88 91  1  0  0  0  0
 89 92  1  0  0  0  0
 90 93  1  0  0  0  0
 92 94  1  0  0  0  0
 92 95  1  0  0  0  0
 92 96  1  0  0  0  0
 94 97  1  0  0  0  0
 95 98  1  0  0  0  0
 97 99  1  0  0  0  0
 98 99  1  0  0  0  0
 97100  1  0  0  0  0
 97101  1  0  0  0  0
 98102  1  0  0  0  0
 98103  1  0  0  0  0
 99104  1  0  0  0  0
 99105  1  0  0  0  0
M  END
