
  xtb     10082107243D
 xtb: 6.4.0 (f63f532)
111119  0     0  0            999 V2000
   -0.9565   -2.1825   -0.2263 N   0  0  0  0  0  0  0  0  0  0  0  0
   -2.2444   -1.8054   -0.2940 C   0  0  0  0  0  0  0  0  0  0  0  0
   -3.1470   -2.4819   -1.1246 C   0  0  0  0  0  0  0  0  0  0  0  0
   -2.7121   -3.5445   -1.8874 C   0  0  0  0  0  0  0  0  0  0  0  0
   -1.3734   -3.9164   -1.8118 C   0  0  0  0  0  0  0  0  0  0  0  0
   -0.5444   -3.2019   -0.9705 C   0  0  0  0  0  0  0  0  0  0  0  0
    0.5035   -3.4491   -0.8802 H   0  0  0  0  0  0  0  0  0  0  0  0
   -0.9881   -4.7382   -2.3929 H   0  0  0  0  0  0  0  0  0  0  0  0
   -4.1791   -2.1775   -1.1819 H   0  0  0  0  0  0  0  0  0  0  0  0
   -2.6317   -0.6599    0.5260 C   0  0  0  0  0  0  0  0  0  0  0  0
   -1.6497   -0.0450    1.2164 N   0  0  0  0  0  0  0  0  0  0  0  0
   -1.9578    1.0076    1.9678 C   0  0  0  0  0  0  0  0  0  0  0  0
   -3.2390    1.5077    2.0907 C   0  0  0  0  0  0  0  0  0  0  0  0
   -4.2652    0.8822    1.3891 C   0  0  0  0  0  0  0  0  0  0  0  0
   -3.9539   -0.2047    0.6002 C   0  0  0  0  0  0  0  0  0  0  0  0
   -4.7370   -0.7011    0.0517 H   0  0  0  0  0  0  0  0  0  0  0  0
   -3.4340    2.3574    2.7248 H   0  0  0  0  0  0  0  0  0  0  0  0
   -1.1264    1.4590    2.4877 H   0  0  0  0  0  0  0  0  0  0  0  0
    0.4215   -0.8165    0.9133 Ir  0  0  0  0  0  0  0  0  0  0  0  0
    0.8726   -2.2303    1.5405 H   0  0  0  0  0  0  0  0  0  0  0  0
    0.1671    0.5112   -0.6831 B   0  0  0  0  0  0  0  0  0  0  0  0
   -0.5580    0.0728   -1.7789 O   0  0  0  0  0  0  0  0  0  0  0  0
   -0.9066    1.1787   -2.6165 C   0  0  0  0  0  0  0  0  0  0  0  0
   -0.7892    0.7744   -4.0843 C   0  0  0  0  0  0  0  0  0  0  0  0
    0.1763    0.3220   -4.2844 H   0  0  0  0  0  0  0  0  0  0  0  0
   -0.9266    1.6425   -4.7240 H   0  0  0  0  0  0  0  0  0  0  0  0
   -1.5601    0.0430   -4.3152 H   0  0  0  0  0  0  0  0  0  0  0  0
   -2.3688    1.5343   -2.3090 C   0  0  0  0  0  0  0  0  0  0  0  0
   -2.7228    2.3340   -2.9530 H   0  0  0  0  0  0  0  0  0  0  0  0
   -2.9827    0.6503   -2.4711 H   0  0  0  0  0  0  0  0  0  0  0  0
   -2.4721    1.8300   -1.2668 H   0  0  0  0  0  0  0  0  0  0  0  0
    0.0942    2.2846   -2.1493 C   0  0  0  0  0  0  0  0  0  0  0  0
    0.4327    1.8559   -0.8232 O   0  0  0  0  0  0  0  0  0  0  0  0
    1.3919    2.2760   -2.9658 C   0  0  0  0  0  0  0  0  0  0  0  0
    1.8118    1.2730   -2.9591 H   0  0  0  0  0  0  0  0  0  0  0  0
    1.2182    2.6069   -3.9857 H   0  0  0  0  0  0  0  0  0  0  0  0
    2.1083    2.9427   -2.4917 H   0  0  0  0  0  0  0  0  0  0  0  0
   -0.4759    3.7010   -2.1103 C   0  0  0  0  0  0  0  0  0  0  0  0
   -1.2826    3.7814   -1.3879 H   0  0  0  0  0  0  0  0  0  0  0  0
    0.3100    4.3942   -1.8197 H   0  0  0  0  0  0  0  0  0  0  0  0
   -0.8428    3.9813   -3.0944 H   0  0  0  0  0  0  0  0  0  0  0  0
    1.5174    0.8119    1.6188 B   0  0  0  0  0  0  0  0  0  0  0  0
    2.7794    1.2264    1.2697 O   0  0  0  0  0  0  0  0  0  0  0  0
    3.0467    2.5407    1.7769 C   0  0  0  0  0  0  0  0  0  0  0  0
    4.4464    2.5632    2.3937 C   0  0  0  0  0  0  0  0  0  0  0  0
    4.5728    1.7626    3.1159 H   0  0  0  0  0  0  0  0  0  0  0  0
    5.1815    2.4189    1.6055 H   0  0  0  0  0  0  0  0  0  0  0  0
    4.6334    3.5211    2.8706 H   0  0  0  0  0  0  0  0  0  0  0  0
    3.0118    3.4963    0.5779 C   0  0  0  0  0  0  0  0  0  0  0  0
    3.1596    4.5268    0.8863 H   0  0  0  0  0  0  0  0  0  0  0  0
    3.8053    3.2175   -0.1119 H   0  0  0  0  0  0  0  0  0  0  0  0
    2.0633    3.3844    0.0610 H   0  0  0  0  0  0  0  0  0  0  0  0
    1.8713    2.7791    2.7946 C   0  0  0  0  0  0  0  0  0  0  0  0
    0.9573    1.7170    2.4931 O   0  0  0  0  0  0  0  0  0  0  0  0
    1.1359    4.1103    2.6255 C   0  0  0  0  0  0  0  0  0  0  0  0
    0.6812    4.1733    1.6422 H   0  0  0  0  0  0  0  0  0  0  0  0
    0.3464    4.1722    3.3710 H   0  0  0  0  0  0  0  0  0  0  0  0
    1.8174    4.9437    2.7701 H   0  0  0  0  0  0  0  0  0  0  0  0
    2.2844    2.6264    4.2631 C   0  0  0  0  0  0  0  0  0  0  0  0
    2.7569    1.6631    4.4250 H   0  0  0  0  0  0  0  0  0  0  0  0
    2.9581    3.4240    4.5617 H   0  0  0  0  0  0  0  0  0  0  0  0
    1.3910    2.6676    4.8822 H   0  0  0  0  0  0  0  0  0  0  0  0
    2.2782   -1.3309    0.1741 B   0  0  0  0  0  0  0  0  0  0  0  0
    3.3490   -1.8005    0.8907 O   0  0  0  0  0  0  0  0  0  0  0  0
    4.5041   -1.9552    0.0592 C   0  0  0  0  0  0  0  0  0  0  0  0
    5.6778   -1.2506    0.7380 C   0  0  0  0  0  0  0  0  0  0  0  0
    5.4146   -0.2249    0.9701 H   0  0  0  0  0  0  0  0  0  0  0  0
    5.8962   -1.7545    1.6759 H   0  0  0  0  0  0  0  0  0  0  0  0
    6.5615   -1.2779    0.1073 H   0  0  0  0  0  0  0  0  0  0  0  0
    4.8052   -3.4568   -0.0315 C   0  0  0  0  0  0  0  0  0  0  0  0
    4.9863   -3.8320    0.9724 H   0  0  0  0  0  0  0  0  0  0  0  0
    5.6843   -3.6412   -0.6409 H   0  0  0  0  0  0  0  0  0  0  0  0
    3.9541   -3.9922   -0.4429 H   0  0  0  0  0  0  0  0  0  0  0  0
    4.0502   -1.3168   -1.3048 C   0  0  0  0  0  0  0  0  0  0  0  0
    2.6282   -1.1974   -1.1529 O   0  0  0  0  0  0  0  0  0  0  0  0
    4.5853    0.1052   -1.5079 C   0  0  0  0  0  0  0  0  0  0  0  0
    5.6687    0.1178   -1.5746 H   0  0  0  0  0  0  0  0  0  0  0  0
    4.1708    0.5053   -2.4302 H   0  0  0  0  0  0  0  0  0  0  0  0
    4.2431    0.7277   -0.6861 H   0  0  0  0  0  0  0  0  0  0  0  0
    4.3606   -2.1550   -2.5458 C   0  0  0  0  0  0  0  0  0  0  0  0
    3.8781   -3.1256   -2.4982 H   0  0  0  0  0  0  0  0  0  0  0  0
    3.9850   -1.6356   -3.4238 H   0  0  0  0  0  0  0  0  0  0  0  0
    5.4338   -2.2872   -2.6492 H   0  0  0  0  0  0  0  0  0  0  0  0
   -3.3976   -4.0725   -2.5330 H   0  0  0  0  0  0  0  0  0  0  0  0
   -5.2826    1.2361    1.4596 H   0  0  0  0  0  0  0  0  0  0  0  0
    0.2359   -1.6814    2.9603 C   0  0  0  0  0  0  0  0  0  0  0  0
   -1.0580   -2.0915    3.2648 C   0  0  0  0  0  0  0  0  0  0  0  0
    1.1177   -1.5342    4.0475 C   0  0  0  0  0  0  0  0  0  0  0  0
   -1.4809   -2.1855    4.5850 C   0  0  0  0  0  0  0  0  0  0  0  0
   -1.7565   -2.3539    2.4811 H   0  0  0  0  0  0  0  0  0  0  0  0
    0.7071   -1.6241    5.3058 N   0  0  0  0  0  0  0  0  0  0  0  0
    2.5899   -1.3163    3.8520 C   0  0  0  0  0  0  0  0  0  0  0  0
   -0.5586   -1.9057    5.5732 C   0  0  0  0  0  0  0  0  0  0  0  0
   -2.4913   -2.4814    4.8281 H   0  0  0  0  0  0  0  0  0  0  0  0
    3.3700   -1.3129    5.1716 C   0  0  0  0  0  0  0  0  0  0  0  0
    2.7379   -0.3807    3.3129 H   0  0  0  0  0  0  0  0  0  0  0  0
    2.9703   -2.0925    3.1863 H   0  0  0  0  0  0  0  0  0  0  0  0
   -0.8168   -1.9411    6.6247 H   0  0  0  0  0  0  0  0  0  0  0  0
    4.8375   -1.1133    4.9319 C   0  0  0  0  0  0  0  0  0  0  0  0
    3.2001   -2.2652    5.6771 H   0  0  0  0  0  0  0  0  0  0  0  0
    2.9781   -0.5251    5.8156 H   0  0  0  0  0  0  0  0  0  0  0  0
    5.6187   -2.1557    4.4455 C   0  0  0  0  0  0  0  0  0  0  0  0
    5.4474    0.1100    5.1788 C   0  0  0  0  0  0  0  0  0  0  0  0
    6.9708   -1.9799    4.2107 C   0  0  0  0  0  0  0  0  0  0  0  0
    5.1585   -3.1148    4.2559 H   0  0  0  0  0  0  0  0  0  0  0  0
    6.7994    0.2921    4.9410 C   0  0  0  0  0  0  0  0  0  0  0  0
    4.8601    0.9270    5.5741 H   0  0  0  0  0  0  0  0  0  0  0  0
    7.5657   -0.7527    4.4550 C   0  0  0  0  0  0  0  0  0  0  0  0
    7.5656   -2.8014    3.8366 H   0  0  0  0  0  0  0  0  0  0  0  0
    7.2561    1.2511    5.1390 H   0  0  0  0  0  0  0  0  0  0  0  0
    8.6211   -0.6138    4.2709 H   0  0  0  0  0  0  0  0  0  0  0  0
  1  2  4  0  0  0  0
  2  3  4  0  0  0  0
  3  4  4  0  0  0  0
  4  5  4  0  0  0  0
  1  6  4  0  0  0  0
  5  6  4  0  0  0  0
  6  7  1  0  0  0  0
  5  8  1  0  0  0  0
  3  9  1  0  0  0  0
  2 10  1  0  0  0  0
 10 11  4  0  0  0  0
 11 12  4  0  0  0  0
 12 13  4  0  0  0  0
 13 14  4  0  0  0  0
 10 15  4  0  0  0  0
 14 15  4  0  0  0  0
 15 16  1  0  0  0  0
 13 17  1  0  0  0  0
 12 18  1  0  0  0  0
  1 19  1  0  0  0  0
 11 19  1  0  0  0  0
 19 20  1  0  0  0  0
 19 21  1  0  0  0  0
 21 22  1  0  0  0  0
 22 23  1  0  0  0  0
 23 24  1  0  0  0  0
 24 25  1  0  0  0  0
 24 26  1  0  0  0  0
 24 27  1  0  0  0  0
 23 28  1  0  0  0  0
 28 29  1  0  0  0  0
 28 30  1  0  0  0  0
 28 31  1  0  0  0  0
 23 32  1  0  0  0  0
 21 33  1  0  0  0  0
 32 33  1  0  0  0  0
 32 34  1  0  0  0  0
 34 35  1  0  0  0  0
 34 36  1  0  0  0  0
 34 37  1  0  0  0  0
 32 38  1  0  0  0  0
 38 39  1  0  0  0  0
 38 40  1  0  0  0  0
 38 41  1  0  0  0  0
 19 42  1  0  0  0  0
 42 43  1  0  0  0  0
 43 44  1  0  0  0  0
 44 45  1  0  0  0  0
 45 46  1  0  0  0  0
 45 47  1  0  0  0  0
 45 48  1  0  0  0  0
 44 49  1  0  0  0  0
 49 50  1  0  0  0  0
 49 51  1  0  0  0  0
 49 52  1  0  0  0  0
 44 53  1  0  0  0  0
 42 54  1  0  0  0  0
 53 54  1  0  0  0  0
 53 55  1  0  0  0  0
 55 56  1  0  0  0  0
 55 57  1  0  0  0  0
 55 58  1  0  0  0  0
 53 59  1  0  0  0  0
 59 60  1  0  0  0  0
 59 61  1  0  0  0  0
 59 62  1  0  0  0  0
 19 63  1  0  0  0  0
 63 64  1  0  0  0  0
 64 65  1  0  0  0  0
 65 66  1  0  0  0  0
 66 67  1  0  0  0  0
 66 68  1  0  0  0  0
 66 69  1  0  0  0  0
 65 70  1  0  0  0  0
 70 71  1  0  0  0  0
 70 72  1  0  0  0  0
 70 73  1  0  0  0  0
 65 74  1  0  0  0  0
 63 75  1  0  0  0  0
 74 75  1  0  0  0  0
 74 76  1  0  0  0  0
 76 77  1  0  0  0  0
 76 78  1  0  0  0  0
 76 79  1  0  0  0  0
 74 80  1  0  0  0  0
 80 81  1  0  0  0  0
 80 82  1  0  0  0  0
 80 83  1  0  0  0  0
  4 84  1  0  0  0  0
 14 85  1  0  0  0  0
 19 86  1  0  0  0  0
 20 86  1  0  0  0  0
 86 87  4  0  0  0  0
 86 88  4  0  0  0  0
 87 89  4  0  0  0  0
 87 90  1  0  0  0  0
 88 91  4  0  0  0  0
 88 92  1  0  0  0  0
 89 93  4  0  0  0  0
 91 93  4  0  0  0  0
 89 94  1  0  0  0  0
 92 95  1  0  0  0  0
 92 96  1  0  0  0  0
 92 97  1  0  0  0  0
 93 98  1  0  0  0  0
 95 99  1  0  0  0  0
 95100  1  0  0  0  0
 95101  1  0  0  0  0
 99102  4  0  0  0  0
 99103  4  0  0  0  0
102104  4  0  0  0  0
102105  1  0  0  0  0
103106  4  0  0  0  0
103107  1  0  0  0  0
104108  4  0  0  0  0
106108  4  0  0  0  0
104109  1  0  0  0  0
106110  1  0  0  0  0
108111  1  0  0  0  0
M  END
