   12
Created with kallisto
C     -1.4379   -0.6867    0.0006
C     -1.3768    0.6878    0.0041
C     -0.1068   -1.1665   -0.0040
N     -0.0561    1.0534   -0.0003
H     -2.1575    1.4363    0.0096
C      0.7337   -0.0711    0.0011
H      0.2060   -2.2031   -0.0067
H      0.2831    2.0065   -0.0010
C      2.2155    0.0042    0.0093
H      2.5682    1.0406    0.0026
H      2.6275   -0.5000   -0.8706
H      2.6146   -0.4836    0.9043
