
  xtb     01142213343D
 xtb: 6.4.1 (1a32961)
 99107  0     0  0            999 V2000
   -0.9231   -2.0225   -0.3842 N   0  0  0  0  0  0  0  0  0  0  0  0
   -2.1663   -1.5342   -0.5490 C   0  0  0  0  0  0  0  0  0  0  0  0
   -3.0069   -2.0285   -1.5538 C   0  0  0  0  0  0  0  0  0  0  0  0
   -2.5641   -3.0343   -2.3849 C   0  0  0  0  0  0  0  0  0  0  0  0
   -1.2797   -3.5375   -2.1955 C   0  0  0  0  0  0  0  0  0  0  0  0
   -0.5076   -2.9968   -1.1886 C   0  0  0  0  0  0  0  0  0  0  0  0
    0.4955   -3.3544   -1.0042 H   0  0  0  0  0  0  0  0  0  0  0  0
   -0.8937   -4.3271   -2.8195 H   0  0  0  0  0  0  0  0  0  0  0  0
   -3.9947   -1.6211   -1.6933 H   0  0  0  0  0  0  0  0  0  0  0  0
   -2.5648   -0.4627    0.3572 C   0  0  0  0  0  0  0  0  0  0  0  0
   -1.6103    0.0159    1.1814 N   0  0  0  0  0  0  0  0  0  0  0  0
   -1.9249    0.9973    2.0219 C   0  0  0  0  0  0  0  0  0  0  0  0
   -3.1842    1.5568    2.1029 C   0  0  0  0  0  0  0  0  0  0  0  0
   -4.1820    1.0711    1.2625 C   0  0  0  0  0  0  0  0  0  0  0  0
   -3.8646    0.0574    0.3841 C   0  0  0  0  0  0  0  0  0  0  0  0
   -4.6261   -0.3363   -0.2686 H   0  0  0  0  0  0  0  0  0  0  0  0
   -3.3855    2.3453    2.8099 H   0  0  0  0  0  0  0  0  0  0  0  0
   -1.1153    1.3441    2.6452 H   0  0  0  0  0  0  0  0  0  0  0  0
    0.4215   -0.8165    0.9133 Ir  0  0  0  0  0  0  0  0  0  0  0  0
    0.8726   -2.2303    1.5405 H   0  0  0  0  0  0  0  0  0  0  0  0
    0.3800    0.6081   -0.6113 B   0  0  0  0  0  0  0  0  0  0  0  0
   -0.3014    0.3411   -1.7871 O   0  0  0  0  0  0  0  0  0  0  0  0
   -0.4182    1.5357   -2.5670 C   0  0  0  0  0  0  0  0  0  0  0  0
   -0.2336    1.2065   -4.0460 C   0  0  0  0  0  0  0  0  0  0  0  0
    0.6769    0.6378   -4.2019 H   0  0  0  0  0  0  0  0  0  0  0  0
   -0.1987    2.1218   -4.6312 H   0  0  0  0  0  0  0  0  0  0  0  0
   -1.0732    0.6041   -4.3849 H   0  0  0  0  0  0  0  0  0  0  0  0
   -1.8362    2.0807   -2.3414 C   0  0  0  0  0  0  0  0  0  0  0  0
   -2.0165    2.9687   -2.9400 H   0  0  0  0  0  0  0  0  0  0  0  0
   -2.5531    1.3116   -2.6221 H   0  0  0  0  0  0  0  0  0  0  0  0
   -1.9840    2.3104   -1.2879 H   0  0  0  0  0  0  0  0  0  0  0  0
    0.6861    2.4529   -1.9483 C   0  0  0  0  0  0  0  0  0  0  0  0
    0.8392    1.9054   -0.6318 O   0  0  0  0  0  0  0  0  0  0  0  0
    2.0406    2.2949   -2.6500 C   0  0  0  0  0  0  0  0  0  0  0  0
    2.3237    1.2450   -2.6431 H   0  0  0  0  0  0  0  0  0  0  0  0
    2.0099    2.6780   -3.6660 H   0  0  0  0  0  0  0  0  0  0  0  0
    2.7904    2.8438   -2.0852 H   0  0  0  0  0  0  0  0  0  0  0  0
    0.3229    3.9339   -1.8620 C   0  0  0  0  0  0  0  0  0  0  0  0
   -0.5285    4.0930   -1.2076 H   0  0  0  0  0  0  0  0  0  0  0  0
    1.1687    4.4850   -1.4581 H   0  0  0  0  0  0  0  0  0  0  0  0
    0.0955    4.3192   -2.8528 H   0  0  0  0  0  0  0  0  0  0  0  0
    1.5632    0.6559    1.8533 B   0  0  0  0  0  0  0  0  0  0  0  0
    2.9285    0.8103    1.8582 O   0  0  0  0  0  0  0  0  0  0  0  0
    3.2773    2.0883    2.4109 C   0  0  0  0  0  0  0  0  0  0  0  0
    4.5353    1.9583    3.2681 C   0  0  0  0  0  0  0  0  0  0  0  0
    4.4263    1.1717    4.0072 H   0  0  0  0  0  0  0  0  0  0  0  0
    5.3779    1.7079    2.6288 H   0  0  0  0  0  0  0  0  0  0  0  0
    4.7441    2.9006    3.7674 H   0  0  0  0  0  0  0  0  0  0  0  0
    3.5588    3.0146    1.2219 C   0  0  0  0  0  0  0  0  0  0  0  0
    3.8148    4.0181    1.5486 H   0  0  0  0  0  0  0  0  0  0  0  0
    4.3895    2.6047    0.6521 H   0  0  0  0  0  0  0  0  0  0  0  0
    2.6857    3.0310    0.5748 H   0  0  0  0  0  0  0  0  0  0  0  0
    1.9817    2.4877    3.1961 C   0  0  0  0  0  0  0  0  0  0  0  0
    0.9785    1.6633    2.5877 O   0  0  0  0  0  0  0  0  0  0  0  0
    1.5766    3.9548    3.0649 C   0  0  0  0  0  0  0  0  0  0  0  0
    1.3428    4.1958    2.0334 H   0  0  0  0  0  0  0  0  0  0  0  0
    0.6889    4.1337    3.6666 H   0  0  0  0  0  0  0  0  0  0  0  0
    2.3761    4.5988    3.4211 H   0  0  0  0  0  0  0  0  0  0  0  0
    2.0390    2.1099    4.6819 C   0  0  0  0  0  0  0  0  0  0  0  0
    2.2776    1.0556    4.7878 H   0  0  0  0  0  0  0  0  0  0  0  0
    2.7701    2.7135    5.2109 H   0  0  0  0  0  0  0  0  0  0  0  0
    1.0588    2.2756    5.1228 H   0  0  0  0  0  0  0  0  0  0  0  0
    2.2782   -1.3309    0.1741 B   0  0  0  0  0  0  0  0  0  0  0  0
    3.1164   -2.2758    0.7270 O   0  0  0  0  0  0  0  0  0  0  0  0
    4.4067   -2.2288    0.1056 C   0  0  0  0  0  0  0  0  0  0  0  0
    5.3337   -1.5000    1.0845 C   0  0  0  0  0  0  0  0  0  0  0  0
    4.8977   -0.5358    1.3289 H   0  0  0  0  0  0  0  0  0  0  0  0
    5.3924   -2.0834    1.9999 H   0  0  0  0  0  0  0  0  0  0  0  0
    6.3323   -1.3802    0.6763 H   0  0  0  0  0  0  0  0  0  0  0  0
    4.9182   -3.6538   -0.1086 C   0  0  0  0  0  0  0  0  0  0  0  0
    5.0434   -4.1284    0.8610 H   0  0  0  0  0  0  0  0  0  0  0  0
    5.8772   -3.6351   -0.6186 H   0  0  0  0  0  0  0  0  0  0  0  0
    4.2134   -4.2455   -0.6829 H   0  0  0  0  0  0  0  0  0  0  0  0
    4.1330   -1.4153   -1.2103 C   0  0  0  0  0  0  0  0  0  0  0  0
    2.8609   -0.8014   -0.9529 O   0  0  0  0  0  0  0  0  0  0  0  0
    5.1566   -0.3209   -1.5099 C   0  0  0  0  0  0  0  0  0  0  0  0
    6.1494   -0.7483   -1.6187 H   0  0  0  0  0  0  0  0  0  0  0  0
    4.8832    0.1756   -2.4375 H   0  0  0  0  0  0  0  0  0  0  0  0
    5.1567    0.4195   -0.7178 H   0  0  0  0  0  0  0  0  0  0  0  0
    3.9684   -2.3005   -2.4530 C   0  0  0  0  0  0  0  0  0  0  0  0
    3.2031   -3.0521   -2.2816 H   0  0  0  0  0  0  0  0  0  0  0  0
    3.6451   -1.6767   -3.2826 H   0  0  0  0  0  0  0  0  0  0  0  0
    4.9053   -2.7813   -2.7170 H   0  0  0  0  0  0  0  0  0  0  0  0
   -3.2001   -3.4206   -3.1668 H   0  0  0  0  0  0  0  0  0  0  0  0
   -5.1824    1.4755    1.2972 H   0  0  0  0  0  0  0  0  0  0  0  0
    0.2359   -1.6814    2.9603 C   0  0  0  0  0  0  0  0  0  0  0  0
   -1.0579   -2.0840    3.3175 C   0  0  0  0  0  0  0  0  0  0  0  0
    1.1970   -1.5199    3.9549 C   0  0  0  0  0  0  0  0  0  0  0  0
   -1.3473   -2.2056    4.6554 C   0  0  0  0  0  0  0  0  0  0  0  0
   -1.8201   -2.2989    2.5858 H   0  0  0  0  0  0  0  0  0  0  0  0
    0.9030   -1.6541    5.3101 C   0  0  0  0  0  0  0  0  0  0  0  0
    2.2075   -1.2867    3.6590 H   0  0  0  0  0  0  0  0  0  0  0  0
   -2.5439   -2.5586    5.2520 O   0  0  0  0  0  0  0  0  0  0  0  0
   -0.3898   -1.9866    5.6396 C   0  0  0  0  0  0  0  0  0  0  0  0
    1.6501   -1.5155    6.0743 H   0  0  0  0  0  0  0  0  0  0  0  0
   -2.2962   -2.5546    6.6432 C   0  0  0  0  0  0  0  0  0  0  0  0
   -0.9540   -2.1892    6.8852 O   0  0  0  0  0  0  0  0  0  0  0  0
   -2.4818   -3.5618    7.0510 H   0  0  0  0  0  0  0  0  0  0  0  0
   -2.9682   -1.8318    7.1335 H   0  0  0  0  0  0  0  0  0  0  0  0
  1  2  4  0  0  0  0
  2  3  4  0  0  0  0
  3  4  4  0  0  0  0
  4  5  4  0  0  0  0
  1  6  4  0  0  0  0
  5  6  4  0  0  0  0
  6  7  1  0  0  0  0
  5  8  1  0  0  0  0
  3  9  1  0  0  0  0
  2 10  1  0  0  0  0
 10 11  4  0  0  0  0
 11 12  4  0  0  0  0
 12 13  4  0  0  0  0
 13 14  4  0  0  0  0
 10 15  4  0  0  0  0
 14 15  4  0  0  0  0
 15 16  1  0  0  0  0
 13 17  1  0  0  0  0
 12 18  1  0  0  0  0
  1 19  1  0  0  0  0
 11 19  1  0  0  0  0
 19 20  1  0  0  0  0
 19 21  1  0  0  0  0
 21 22  1  0  0  0  0
 22 23  1  0  0  0  0
 23 24  1  0  0  0  0
 24 25  1  0  0  0  0
 24 26  1  0  0  0  0
 24 27  1  0  0  0  0
 23 28  1  0  0  0  0
 28 29  1  0  0  0  0
 28 30  1  0  0  0  0
 28 31  1  0  0  0  0
 23 32  1  0  0  0  0
 21 33  1  0  0  0  0
 32 33  1  0  0  0  0
 32 34  1  0  0  0  0
 34 35  1  0  0  0  0
 34 36  1  0  0  0  0
 34 37  1  0  0  0  0
 32 38  1  0  0  0  0
 38 39  1  0  0  0  0
 38 40  1  0  0  0  0
 38 41  1  0  0  0  0
 19 42  1  0  0  0  0
 42 43  1  0  0  0  0
 43 44  1  0  0  0  0
 44 45  1  0  0  0  0
 45 46  1  0  0  0  0
 45 47  1  0  0  0  0
 45 48  1  0  0  0  0
 44 49  1  0  0  0  0
 49 50  1  0  0  0  0
 49 51  1  0  0  0  0
 49 52  1  0  0  0  0
 44 53  1  0  0  0  0
 42 54  1  0  0  0  0
 53 54  1  0  0  0  0
 53 55  1  0  0  0  0
 55 56  1  0  0  0  0
 55 57  1  0  0  0  0
 55 58  1  0  0  0  0
 53 59  1  0  0  0  0
 59 60  1  0  0  0  0
 59 61  1  0  0  0  0
 59 62  1  0  0  0  0
 19 63  1  0  0  0  0
 63 64  1  0  0  0  0
 64 65  1  0  0  0  0
 65 66  1  0  0  0  0
 66 67  1  0  0  0  0
 66 68  1  0  0  0  0
 66 69  1  0  0  0  0
 65 70  1  0  0  0  0
 70 71  1  0  0  0  0
 70 72  1  0  0  0  0
 70 73  1  0  0  0  0
 65 74  1  0  0  0  0
 63 75  1  0  0  0  0
 74 75  1  0  0  0  0
 74 76  1  0  0  0  0
 76 77  1  0  0  0  0
 76 78  1  0  0  0  0
 76 79  1  0  0  0  0
 74 80  1  0  0  0  0
 80 81  1  0  0  0  0
 80 82  1  0  0  0  0
 80 83  1  0  0  0  0
  4 84  1  0  0  0  0
 14 85  1  0  0  0  0
 19 86  1  0  0  0  0
 20 86  1  0  0  0  0
 86 87  4  0  0  0  0
 86 88  4  0  0  0  0
 87 89  4  0  0  0  0
 87 90  1  0  0  0  0
 88 91  4  0  0  0  0
 88 92  1  0  0  0  0
 89 93  1  0  0  0  0
 89 94  4  0  0  0  0
 91 94  4  0  0  0  0
 91 95  1  0  0  0  0
 93 96  1  0  0  0  0
 94 97  1  0  0  0  0
 96 97  1  0  0  0  0
 96 98  1  0  0  0  0
 96 99  1  0  0  0  0
M  END
