
  xtb     01142215243D
 xtb: 6.4.1 (1a32961)
 96103  0     0  0            999 V2000
   -0.9436   -2.0242   -0.3661 N   0  0  0  0  0  0  0  0  0  0  0  0
   -2.1838   -1.5318   -0.5324 C   0  0  0  0  0  0  0  0  0  0  0  0
   -3.0485   -2.0702   -1.4928 C   0  0  0  0  0  0  0  0  0  0  0  0
   -2.6282   -3.1196   -2.2817 C   0  0  0  0  0  0  0  0  0  0  0  0
   -1.3434   -3.6206   -2.0956 C   0  0  0  0  0  0  0  0  0  0  0  0
   -0.5482   -3.0377   -1.1300 C   0  0  0  0  0  0  0  0  0  0  0  0
    0.4555   -3.3938   -0.9468 H   0  0  0  0  0  0  0  0  0  0  0  0
   -0.9739   -4.4416   -2.6879 H   0  0  0  0  0  0  0  0  0  0  0  0
   -4.0389   -1.6687   -1.6288 H   0  0  0  0  0  0  0  0  0  0  0  0
   -2.5583   -0.4139    0.3301 C   0  0  0  0  0  0  0  0  0  0  0  0
   -1.6032    0.0563    1.1578 N   0  0  0  0  0  0  0  0  0  0  0  0
   -1.8983    1.0725    1.9638 C   0  0  0  0  0  0  0  0  0  0  0  0
   -3.1382    1.6789    2.0025 C   0  0  0  0  0  0  0  0  0  0  0  0
   -4.1338    1.2077    1.1527 C   0  0  0  0  0  0  0  0  0  0  0  0
   -3.8365    0.1564    0.3112 C   0  0  0  0  0  0  0  0  0  0  0  0
   -4.5969   -0.2225   -0.3508 H   0  0  0  0  0  0  0  0  0  0  0  0
   -3.3243    2.4939    2.6828 H   0  0  0  0  0  0  0  0  0  0  0  0
   -1.0897    1.4099    2.5937 H   0  0  0  0  0  0  0  0  0  0  0  0
    0.4215   -0.8165    0.9133 Ir  0  0  0  0  0  0  0  0  0  0  0  0
    0.8726   -2.2303    1.5405 H   0  0  0  0  0  0  0  0  0  0  0  0
    0.4131    0.5818   -0.6310 B   0  0  0  0  0  0  0  0  0  0  0  0
   -0.2010    0.2764   -1.8306 O   0  0  0  0  0  0  0  0  0  0  0  0
   -0.2818    1.4485   -2.6505 C   0  0  0  0  0  0  0  0  0  0  0  0
    0.0060    1.0807   -4.1035 C   0  0  0  0  0  0  0  0  0  0  0  0
    0.9343    0.5248   -4.1811 H   0  0  0  0  0  0  0  0  0  0  0  0
    0.0648    1.9793   -4.7121 H   0  0  0  0  0  0  0  0  0  0  0  0
   -0.7989    0.4539   -4.4798 H   0  0  0  0  0  0  0  0  0  0  0  0
   -1.7191    1.9755   -2.5350 C   0  0  0  0  0  0  0  0  0  0  0  0
   -1.8702    2.8457   -3.1665 H   0  0  0  0  0  0  0  0  0  0  0  0
   -2.4034    1.1883   -2.8453 H   0  0  0  0  0  0  0  0  0  0  0  0
   -1.9423    2.2284   -1.5004 H   0  0  0  0  0  0  0  0  0  0  0  0
    0.7680    2.3998   -1.9878 C   0  0  0  0  0  0  0  0  0  0  0  0
    0.8535    1.8836   -0.6512 O   0  0  0  0  0  0  0  0  0  0  0  0
    2.1639    2.2521   -2.6049 C   0  0  0  0  0  0  0  0  0  0  0  0
    2.4679    1.2097   -2.5485 H   0  0  0  0  0  0  0  0  0  0  0  0
    2.1839    2.6037   -3.6323 H   0  0  0  0  0  0  0  0  0  0  0  0
    2.8682    2.8355   -2.0167 H   0  0  0  0  0  0  0  0  0  0  0  0
    0.3747    3.8750   -1.9556 C   0  0  0  0  0  0  0  0  0  0  0  0
   -0.5203    4.0327   -1.3619 H   0  0  0  0  0  0  0  0  0  0  0  0
    1.1828    4.4492   -1.5089 H   0  0  0  0  0  0  0  0  0  0  0  0
    0.2069    4.2365   -2.9669 H   0  0  0  0  0  0  0  0  0  0  0  0
    1.5819    0.6412    1.8581 B   0  0  0  0  0  0  0  0  0  0  0  0
    2.9473    0.7753    1.8657 O   0  0  0  0  0  0  0  0  0  0  0  0
    3.3135    2.0533    2.4100 C   0  0  0  0  0  0  0  0  0  0  0  0
    4.5636    1.9107    3.2765 C   0  0  0  0  0  0  0  0  0  0  0  0
    4.4384    1.1384    4.0281 H   0  0  0  0  0  0  0  0  0  0  0  0
    5.4051    1.6352    2.6461 H   0  0  0  0  0  0  0  0  0  0  0  0
    4.7875    2.8555    3.7640 H   0  0  0  0  0  0  0  0  0  0  0  0
    3.6184    2.9610    1.2130 C   0  0  0  0  0  0  0  0  0  0  0  0
    3.8897    3.9631    1.5308 H   0  0  0  0  0  0  0  0  0  0  0  0
    4.4461    2.5305    0.6539 H   0  0  0  0  0  0  0  0  0  0  0  0
    2.7504    2.9863    0.5593 H   0  0  0  0  0  0  0  0  0  0  0  0
    2.0196    2.4825    3.1832 C   0  0  0  0  0  0  0  0  0  0  0  0
    1.0078    1.6522    2.5929 O   0  0  0  0  0  0  0  0  0  0  0  0
    1.6251    3.9483    3.0124 C   0  0  0  0  0  0  0  0  0  0  0  0
    1.3918    4.1624    1.9748 H   0  0  0  0  0  0  0  0  0  0  0  0
    0.7397    4.1503    3.6103 H   0  0  0  0  0  0  0  0  0  0  0  0
    2.4298    4.5953    3.3504 H   0  0  0  0  0  0  0  0  0  0  0  0
    2.0691    2.1463    4.6782 C   0  0  0  0  0  0  0  0  0  0  0  0
    2.3265    1.1014    4.8222 H   0  0  0  0  0  0  0  0  0  0  0  0
    2.7884    2.7723    5.1967 H   0  0  0  0  0  0  0  0  0  0  0  0
    1.0838    2.3121    5.1081 H   0  0  0  0  0  0  0  0  0  0  0  0
    2.2782   -1.3309    0.1741 B   0  0  0  0  0  0  0  0  0  0  0  0
    3.0912   -2.2968    0.7271 O   0  0  0  0  0  0  0  0  0  0  0  0
    4.3845   -2.2777    0.1073 C   0  0  0  0  0  0  0  0  0  0  0  0
    5.3251   -1.5675    1.0865 C   0  0  0  0  0  0  0  0  0  0  0  0
    4.9123   -0.5921    1.3273 H   0  0  0  0  0  0  0  0  0  0  0  0
    5.3697   -2.1488    2.0042 H   0  0  0  0  0  0  0  0  0  0  0  0
    6.3270   -1.4720    0.6805 H   0  0  0  0  0  0  0  0  0  0  0  0
    4.8655   -3.7130   -0.1057 C   0  0  0  0  0  0  0  0  0  0  0  0
    4.9848   -4.1888    0.8641 H   0  0  0  0  0  0  0  0  0  0  0  0
    5.8231   -3.7144   -0.6184 H   0  0  0  0  0  0  0  0  0  0  0  0
    4.1473   -4.2914   -0.6772 H   0  0  0  0  0  0  0  0  0  0  0  0
    4.1280   -1.4594   -1.2083 C   0  0  0  0  0  0  0  0  0  0  0  0
    2.8760   -0.8053   -0.9438 O   0  0  0  0  0  0  0  0  0  0  0  0
    5.1852   -0.4012   -1.5187 C   0  0  0  0  0  0  0  0  0  0  0  0
    6.1624   -0.8633   -1.6271 H   0  0  0  0  0  0  0  0  0  0  0  0
    4.9271    0.0978   -2.4493 H   0  0  0  0  0  0  0  0  0  0  0  0
    5.2146    0.3441   -0.7317 H   0  0  0  0  0  0  0  0  0  0  0  0
    3.9233   -2.3431   -2.4458 C   0  0  0  0  0  0  0  0  0  0  0  0
    3.1393   -3.0724   -2.2625 H   0  0  0  0  0  0  0  0  0  0  0  0
    3.6071   -1.7130   -3.2736 H   0  0  0  0  0  0  0  0  0  0  0  0
    4.8430   -2.8509   -2.7196 H   0  0  0  0  0  0  0  0  0  0  0  0
   -3.2838   -3.5408   -3.0284 H   0  0  0  0  0  0  0  0  0  0  0  0
   -5.1178    1.6514    1.1508 H   0  0  0  0  0  0  0  0  0  0  0  0
    0.2359   -1.6814    2.9603 C   0  0  0  0  0  0  0  0  0  0  0  0
   -1.0500   -2.0533    3.3532 C   0  0  0  0  0  0  0  0  0  0  0  0
    1.2121   -1.5409    3.9482 C   0  0  0  0  0  0  0  0  0  0  0  0
   -1.3478   -2.1786    4.6960 C   0  0  0  0  0  0  0  0  0  0  0  0
   -1.8316   -2.2450    2.6343 H   0  0  0  0  0  0  0  0  0  0  0  0
    0.8765   -1.6872    5.2786 C   0  0  0  0  0  0  0  0  0  0  0  0
    2.2278   -1.3201    3.6600 H   0  0  0  0  0  0  0  0  0  0  0  0
   -2.6207   -2.5046    5.0589 F   0  0  0  0  0  0  0  0  0  0  0  0
   -0.4093   -1.9959    5.6936 C   0  0  0  0  0  0  0  0  0  0  0  0
    2.2272   -1.4721    6.6116 Br  0  0  0  0  0  0  0  0  0  0  0  0
   -0.6726   -2.1047    6.7329 H   0  0  0  0  0  0  0  0  0  0  0  0
  1  2  4  0  0  0  0
  2  3  4  0  0  0  0
  3  4  4  0  0  0  0
  4  5  4  0  0  0  0
  1  6  4  0  0  0  0
  5  6  4  0  0  0  0
  6  7  1  0  0  0  0
  5  8  1  0  0  0  0
  3  9  1  0  0  0  0
  2 10  1  0  0  0  0
 10 11  4  0  0  0  0
 11 12  4  0  0  0  0
 12 13  4  0  0  0  0
 13 14  4  0  0  0  0
 10 15  4  0  0  0  0
 14 15  4  0  0  0  0
 15 16  1  0  0  0  0
 13 17  1  0  0  0  0
 12 18  1  0  0  0  0
  1 19  1  0  0  0  0
 11 19  1  0  0  0  0
 19 20  1  0  0  0  0
 19 21  1  0  0  0  0
 21 22  1  0  0  0  0
 22 23  1  0  0  0  0
 23 24  1  0  0  0  0
 24 25  1  0  0  0  0
 24 26  1  0  0  0  0
 24 27  1  0  0  0  0
 23 28  1  0  0  0  0
 28 29  1  0  0  0  0
 28 30  1  0  0  0  0
 28 31  1  0  0  0  0
 23 32  1  0  0  0  0
 21 33  1  0  0  0  0
 32 33  1  0  0  0  0
 32 34  1  0  0  0  0
 34 35  1  0  0  0  0
 34 36  1  0  0  0  0
 34 37  1  0  0  0  0
 32 38  1  0  0  0  0
 38 39  1  0  0  0  0
 38 40  1  0  0  0  0
 38 41  1  0  0  0  0
 19 42  1  0  0  0  0
 42 43  1  0  0  0  0
 43 44  1  0  0  0  0
 44 45  1  0  0  0  0
 45 46  1  0  0  0  0
 45 47  1  0  0  0  0
 45 48  1  0  0  0  0
 44 49  1  0  0  0  0
 49 50  1  0  0  0  0
 49 51  1  0  0  0  0
 49 52  1  0  0  0  0
 44 53  1  0  0  0  0
 42 54  1  0  0  0  0
 53 54  1  0  0  0  0
 53 55  1  0  0  0  0
 55 56  1  0  0  0  0
 55 57  1  0  0  0  0
 55 58  1  0  0  0  0
 53 59  1  0  0  0  0
 59 60  1  0  0  0  0
 59 61  1  0  0  0  0
 59 62  1  0  0  0  0
 19 63  1  0  0  0  0
 63 64  1  0  0  0  0
 64 65  1  0  0  0  0
 65 66  1  0  0  0  0
 66 67  1  0  0  0  0
 66 68  1  0  0  0  0
 66 69  1  0  0  0  0
 65 70  1  0  0  0  0
 70 71  1  0  0  0  0
 70 72  1  0  0  0  0
 70 73  1  0  0  0  0
 65 74  1  0  0  0  0
 63 75  1  0  0  0  0
 74 75  1  0  0  0  0
 74 76  1  0  0  0  0
 76 77  1  0  0  0  0
 76 78  1  0  0  0  0
 76 79  1  0  0  0  0
 74 80  1  0  0  0  0
 80 81  1  0  0  0  0
 80 82  1  0  0  0  0
 80 83  1  0  0  0  0
  4 84  1  0  0  0  0
 14 85  1  0  0  0  0
 19 86  1  0  0  0  0
 20 86  1  0  0  0  0
 86 87  4  0  0  0  0
 86 88  4  0  0  0  0
 87 89  4  0  0  0  0
 87 90  1  0  0  0  0
 88 91  4  0  0  0  0
 88 92  1  0  0  0  0
 89 93  1  0  0  0  0
 89 94  4  0  0  0  0
 91 94  4  0  0  0  0
 91 95  1  0  0  0  0
 94 96  1  0  0  0  0
M  END
