   31
Created with kallisto
C     -0.9720   -1.5862   -0.0328
C     -2.2001   -0.9212   -0.0374
C      0.2263   -0.8414   -0.0081
C     -2.2479    0.4679   -0.0414
H     -3.1249   -1.4954   -0.0342
C      0.1618    0.5575   -0.0240
C      1.5995   -1.2159    0.0506
C     -1.0704    1.2358   -0.0408
H     -3.2122    0.9708   -0.0313
N      1.4691    1.0192   -0.0087
C      2.3170   -0.0466    0.1591
C      2.1634   -2.5867    0.0442
H     -1.1133    2.3203   -0.0393
O      1.8120    2.3951   -0.0072
H      3.3795    0.0803    0.2818
H      3.2586   -2.5590    0.0421
H      1.8426   -3.1247   -0.8532
H      1.8371   -3.1442    0.9267
Si     3.2666    2.8251   -0.7411
C      4.6974    2.6076    0.4887
C      3.6105    1.8500   -2.3178
C      3.3523    4.6485   -1.2408
H      4.6712    1.6371    0.9880
H      4.6380    3.3807    1.2613
H      5.6580    2.7055   -0.0243
H      3.4993    0.7728   -2.1767
H      4.6308    2.0385   -2.6642
H      2.9194    2.1614   -3.1071
H      3.2351    5.2992   -0.3711
H      2.5850    4.8914   -1.9803
H      4.3331    4.8509   -1.6864
