
  xtb     01142214323D
 xtb: 6.4.1 (1a32961)
116124  0     0  0            999 V2000
   -0.9056   -2.2566   -0.2356 N   0  0  0  0  0  0  0  0  0  0  0  0
   -2.2183   -1.9718   -0.2741 C   0  0  0  0  0  0  0  0  0  0  0  0
   -3.1344   -2.8610   -0.8527 C   0  0  0  0  0  0  0  0  0  0  0  0
   -2.6832   -4.0310   -1.4235 C   0  0  0  0  0  0  0  0  0  0  0  0
   -1.3163   -4.2959   -1.4056 C   0  0  0  0  0  0  0  0  0  0  0  0
   -0.4790   -3.3841   -0.7936 C   0  0  0  0  0  0  0  0  0  0  0  0
    0.5862   -3.5537   -0.7345 H   0  0  0  0  0  0  0  0  0  0  0  0
   -0.9184   -5.1962   -1.8447 H   0  0  0  0  0  0  0  0  0  0  0  0
   -4.1905   -2.6457   -0.8389 H   0  0  0  0  0  0  0  0  0  0  0  0
   -2.6282   -0.7080    0.3261 C   0  0  0  0  0  0  0  0  0  0  0  0
   -1.7011   -0.0567    1.0559 N   0  0  0  0  0  0  0  0  0  0  0  0
   -2.0429    1.0904    1.6359 C   0  0  0  0  0  0  0  0  0  0  0  0
   -3.2961    1.6579    1.5251 C   0  0  0  0  0  0  0  0  0  0  0  0
   -4.2553    1.0109    0.7503 C   0  0  0  0  0  0  0  0  0  0  0  0
   -3.9125   -0.1785    0.1445 C   0  0  0  0  0  0  0  0  0  0  0  0
   -4.6308   -0.6866   -0.4784 H   0  0  0  0  0  0  0  0  0  0  0  0
   -3.5213    2.5834    2.0300 H   0  0  0  0  0  0  0  0  0  0  0  0
   -1.2642    1.5595    2.2161 H   0  0  0  0  0  0  0  0  0  0  0  0
    0.4215   -0.8165    0.9133 Ir  0  0  0  0  0  0  0  0  0  0  0  0
    0.8726   -2.2303    1.5405 H   0  0  0  0  0  0  0  0  0  0  0  0
    0.2298    0.5085   -0.6740 B   0  0  0  0  0  0  0  0  0  0  0  0
   -0.0694    0.0142   -1.9335 O   0  0  0  0  0  0  0  0  0  0  0  0
   -0.5562    1.0631   -2.7766 C   0  0  0  0  0  0  0  0  0  0  0  0
    0.0176    0.8994   -4.1830 C   0  0  0  0  0  0  0  0  0  0  0  0
    1.1001    0.8343   -4.1579 H   0  0  0  0  0  0  0  0  0  0  0  0
   -0.2846    1.7347   -4.8095 H   0  0  0  0  0  0  0  0  0  0  0  0
   -0.3676   -0.0213   -4.6154 H   0  0  0  0  0  0  0  0  0  0  0  0
   -2.0837    0.9170   -2.8490 C   0  0  0  0  0  0  0  0  0  0  0  0
   -2.5157    1.6466   -3.5278 H   0  0  0  0  0  0  0  0  0  0  0  0
   -2.3215   -0.0835   -3.2057 H   0  0  0  0  0  0  0  0  0  0  0  0
   -2.5233    1.0340   -1.8613 H   0  0  0  0  0  0  0  0  0  0  0  0
   -0.1050    2.3555   -2.0160 C   0  0  0  0  0  0  0  0  0  0  0  0
    0.1033    1.8815   -0.6802 O   0  0  0  0  0  0  0  0  0  0  0  0
    1.2391    2.8965   -2.5190 C   0  0  0  0  0  0  0  0  0  0  0  0
    1.9910    2.1143   -2.4524 H   0  0  0  0  0  0  0  0  0  0  0  0
    1.1606    3.2600   -3.5395 H   0  0  0  0  0  0  0  0  0  0  0  0
    1.5507    3.7147   -1.8744 H   0  0  0  0  0  0  0  0  0  0  0  0
   -1.1314    3.4881   -2.0021 C   0  0  0  0  0  0  0  0  0  0  0  0
   -2.0360    3.1922   -1.4791 H   0  0  0  0  0  0  0  0  0  0  0  0
   -0.7078    4.3443   -1.4827 H   0  0  0  0  0  0  0  0  0  0  0  0
   -1.3798    3.7822   -3.0186 H   0  0  0  0  0  0  0  0  0  0  0  0
    1.3816    0.7850    1.8357 B   0  0  0  0  0  0  0  0  0  0  0  0
    2.6457    1.2823    1.6470 O   0  0  0  0  0  0  0  0  0  0  0  0
    2.7716    2.5659    2.2691 C   0  0  0  0  0  0  0  0  0  0  0  0
    4.1575    2.7021    2.8965 C   0  0  0  0  0  0  0  0  0  0  0  0
    4.3641    1.8735    3.5649 H   0  0  0  0  0  0  0  0  0  0  0  0
    4.9025    2.6944    2.1060 H   0  0  0  0  0  0  0  0  0  0  0  0
    4.2309    3.6396    3.4412 H   0  0  0  0  0  0  0  0  0  0  0  0
    2.6088    3.6091    1.1570 C   0  0  0  0  0  0  0  0  0  0  0  0
    2.6834    4.6215    1.5434 H   0  0  0  0  0  0  0  0  0  0  0  0
    3.3915    3.4483    0.4200 H   0  0  0  0  0  0  0  0  0  0  0  0
    1.6517    3.4563    0.6648 H   0  0  0  0  0  0  0  0  0  0  0  0
    1.5800    2.5739    3.2860 C   0  0  0  0  0  0  0  0  0  0  0  0
    0.7115    1.5649    2.7578 O   0  0  0  0  0  0  0  0  0  0  0  0
    0.8214    3.8973    3.3809 C   0  0  0  0  0  0  0  0  0  0  0  0
    0.3632    4.1497    2.4304 H   0  0  0  0  0  0  0  0  0  0  0  0
    0.0352    3.8018    4.1261 H   0  0  0  0  0  0  0  0  0  0  0  0
    1.4958    4.6938    3.6834 H   0  0  0  0  0  0  0  0  0  0  0  0
    1.9920    2.1298    4.6943 C   0  0  0  0  0  0  0  0  0  0  0  0
    2.5130    1.1780    4.6448 H   0  0  0  0  0  0  0  0  0  0  0  0
    2.6207    2.8772    5.1688 H   0  0  0  0  0  0  0  0  0  0  0  0
    1.0946    1.9876    5.2918 H   0  0  0  0  0  0  0  0  0  0  0  0
    2.2782   -1.3309    0.1741 B   0  0  0  0  0  0  0  0  0  0  0  0
    2.5624   -2.6626   -0.1048 O   0  0  0  0  0  0  0  0  0  0  0  0
    3.7176   -2.7823   -0.9422 C   0  0  0  0  0  0  0  0  0  0  0  0
    4.8542   -3.3686   -0.0957 C   0  0  0  0  0  0  0  0  0  0  0  0
    5.0970   -2.7023    0.7255 H   0  0  0  0  0  0  0  0  0  0  0  0
    4.5217   -4.3164    0.3212 H   0  0  0  0  0  0  0  0  0  0  0  0
    5.7373   -3.5410   -0.7033 H   0  0  0  0  0  0  0  0  0  0  0  0
    3.4028   -3.7568   -2.0794 C   0  0  0  0  0  0  0  0  0  0  0  0
    3.2327   -4.7443   -1.6571 H   0  0  0  0  0  0  0  0  0  0  0  0
    4.2383   -3.8122   -2.7713 H   0  0  0  0  0  0  0  0  0  0  0  0
    2.5080   -3.4549   -2.6139 H   0  0  0  0  0  0  0  0  0  0  0  0
    3.9728   -1.3004   -1.3929 C   0  0  0  0  0  0  0  0  0  0  0  0
    3.2018   -0.5356   -0.4584 O   0  0  0  0  0  0  0  0  0  0  0  0
    5.4353   -0.8597   -1.3504 C   0  0  0  0  0  0  0  0  0  0  0  0
    6.0332   -1.4861   -2.0068 H   0  0  0  0  0  0  0  0  0  0  0  0
    5.5027    0.1702   -1.6897 H   0  0  0  0  0  0  0  0  0  0  0  0
    5.8281   -0.9076   -0.3412 H   0  0  0  0  0  0  0  0  0  0  0  0
    3.3976   -0.9906   -2.7826 C   0  0  0  0  0  0  0  0  0  0  0  0
    2.3291   -1.1922   -2.7884 H   0  0  0  0  0  0  0  0  0  0  0  0
    3.5375    0.0696   -2.9807 H   0  0  0  0  0  0  0  0  0  0  0  0
    3.8961   -1.5621   -3.5596 H   0  0  0  0  0  0  0  0  0  0  0  0
   -3.3775   -4.7270   -1.8699 H   0  0  0  0  0  0  0  0  0  0  0  0
   -5.2427    1.4291    0.6229 H   0  0  0  0  0  0  0  0  0  0  0  0
    0.2359   -1.6814    2.9603 C   0  0  0  0  0  0  0  0  0  0  0  0
   -1.0759   -1.9361    3.3183 C   0  0  0  0  0  0  0  0  0  0  0  0
    1.1715   -1.5681    4.0068 C   0  0  0  0  0  0  0  0  0  0  0  0
   -1.5113   -1.9199    4.6488 C   0  0  0  0  0  0  0  0  0  0  0  0
   -1.8184   -2.1491    2.5620 H   0  0  0  0  0  0  0  0  0  0  0  0
    0.7034   -1.5322    5.3531 C   0  0  0  0  0  0  0  0  0  0  0  0
    2.5994   -1.4915    4.0812 C   0  0  0  0  0  0  0  0  0  0  0  0
   -0.6382   -1.6864    5.6855 C   0  0  0  0  0  0  0  0  0  0  0  0
   -2.5590   -2.0880    4.8579 H   0  0  0  0  0  0  0  0  0  0  0  0
    1.7858   -1.3771    6.1608 N   0  0  0  0  0  0  0  0  0  0  0  0
    2.9187   -1.3772    5.4052 C   0  0  0  0  0  0  0  0  0  0  0  0
    3.6025   -1.5996    2.9871 C   0  0  0  0  0  0  0  0  0  0  0  0
   -0.9618   -1.6482    6.7145 H   0  0  0  0  0  0  0  0  0  0  0  0
    1.7344   -1.3335    7.5345 O   0  0  0  0  0  0  0  0  0  0  0  0
    3.8787   -1.2892    5.8720 H   0  0  0  0  0  0  0  0  0  0  0  0
    4.6041   -1.6281    3.4122 H   0  0  0  0  0  0  0  0  0  0  0  0
    3.5187   -0.7616    2.2990 H   0  0  0  0  0  0  0  0  0  0  0  0
    3.4278   -2.5089    2.4182 H   0  0  0  0  0  0  0  0  0  0  0  0
    2.8900   -1.8901    8.6032 Si  0  0  0  0  0  0  0  0  0  0  0  0
    3.3850   -3.6872    8.2048 C   0  0  0  0  0  0  0  0  0  0  0  0
    4.4469   -0.7819    8.6218 C   0  0  0  0  0  0  0  0  0  0  0  0
    1.9193   -1.7055   10.2225 C   0  0  0  0  0  0  0  0  0  0  0  0
    3.8200   -3.7655    7.2116 H   0  0  0  0  0  0  0  0  0  0  0  0
    2.5220   -4.3471    8.2326 H   0  0  0  0  0  0  0  0  0  0  0  0
    4.1141   -4.0686    8.9122 H   0  0  0  0  0  0  0  0  0  0  0  0
    5.1741   -1.0698    7.8670 H   0  0  0  0  0  0  0  0  0  0  0  0
    4.9495   -0.8393    9.5823 H   0  0  0  0  0  0  0  0  0  0  0  0
    4.1899    0.2601    8.4508 H   0  0  0  0  0  0  0  0  0  0  0  0
    1.0599   -2.3668   10.2522 H   0  0  0  0  0  0  0  0  0  0  0  0
    1.5588   -0.6900   10.3489 H   0  0  0  0  0  0  0  0  0  0  0  0
    2.5506   -1.9429   11.0717 H   0  0  0  0  0  0  0  0  0  0  0  0
  1  2  4  0  0  0  0
  2  3  4  0  0  0  0
  3  4  4  0  0  0  0
  4  5  4  0  0  0  0
  1  6  4  0  0  0  0
  5  6  4  0  0  0  0
  6  7  1  0  0  0  0
  5  8  1  0  0  0  0
  3  9  1  0  0  0  0
  2 10  1  0  0  0  0
 10 11  4  0  0  0  0
 11 12  4  0  0  0  0
 12 13  4  0  0  0  0
 13 14  4  0  0  0  0
 10 15  4  0  0  0  0
 14 15  4  0  0  0  0
 15 16  1  0  0  0  0
 13 17  1  0  0  0  0
 12 18  1  0  0  0  0
  1 19  1  0  0  0  0
 11 19  1  0  0  0  0
 19 20  1  0  0  0  0
 19 21  1  0  0  0  0
 21 22  1  0  0  0  0
 22 23  1  0  0  0  0
 23 24  1  0  0  0  0
 24 25  1  0  0  0  0
 24 26  1  0  0  0  0
 24 27  1  0  0  0  0
 23 28  1  0  0  0  0
 28 29  1  0  0  0  0
 28 30  1  0  0  0  0
 28 31  1  0  0  0  0
 23 32  1  0  0  0  0
 21 33  1  0  0  0  0
 32 33  1  0  0  0  0
 32 34  1  0  0  0  0
 34 35  1  0  0  0  0
 34 36  1  0  0  0  0
 34 37  1  0  0  0  0
 32 38  1  0  0  0  0
 38 39  1  0  0  0  0
 38 40  1  0  0  0  0
 38 41  1  0  0  0  0
 19 42  1  0  0  0  0
 42 43  1  0  0  0  0
 43 44  1  0  0  0  0
 44 45  1  0  0  0  0
 45 46  1  0  0  0  0
 45 47  1  0  0  0  0
 45 48  1  0  0  0  0
 44 49  1  0  0  0  0
 49 50  1  0  0  0  0
 49 51  1  0  0  0  0
 49 52  1  0  0  0  0
 44 53  1  0  0  0  0
 42 54  1  0  0  0  0
 53 54  1  0  0  0  0
 53 55  1  0  0  0  0
 55 56  1  0  0  0  0
 55 57  1  0  0  0  0
 55 58  1  0  0  0  0
 53 59  1  0  0  0  0
 59 60  1  0  0  0  0
 59 61  1  0  0  0  0
 59 62  1  0  0  0  0
 19 63  1  0  0  0  0
 63 64  1  0  0  0  0
 64 65  1  0  0  0  0
 65 66  1  0  0  0  0
 66 67  1  0  0  0  0
 66 68  1  0  0  0  0
 66 69  1  0  0  0  0
 65 70  1  0  0  0  0
 70 71  1  0  0  0  0
 70 72  1  0  0  0  0
 70 73  1  0  0  0  0
 65 74  1  0  0  0  0
 63 75  1  0  0  0  0
 74 75  1  0  0  0  0
 74 76  1  0  0  0  0
 76 77  1  0  0  0  0
 76 78  1  0  0  0  0
 76 79  1  0  0  0  0
 74 80  1  0  0  0  0
 80 81  1  0  0  0  0
 80 82  1  0  0  0  0
 80 83  1  0  0  0  0
  4 84  1  0  0  0  0
 14 85  1  0  0  0  0
 19 86  1  0  0  0  0
 20 86  1  0  0  0  0
 86 87  4  0  0  0  0
 86 88  4  0  0  0  0
 87 89  4  0  0  0  0
 87 90  1  0  0  0  0
 88 91  4  0  0  0  0
 88 92  4  0  0  0  0
 89 93  4  0  0  0  0
 91 93  4  0  0  0  0
 89 94  1  0  0  0  0
 91 95  1  0  0  0  0
 92 96  2  0  0  0  0
 95 96  1  0  0  0  0
 92 97  1  0  0  0  0
 93 98  1  0  0  0  0
 95 99  1  0  0  0  0
 96100  1  0  0  0  0
 97101  1  0  0  0  0
 97102  1  0  0  0  0
 97103  1  0  0  0  0
 99104  1  0  0  0  0
104105  1  0  0  0  0
104106  1  0  0  0  0
104107  1  0  0  0  0
105108  1  0  0  0  0
105109  1  0  0  0  0
105110  1  0  0  0  0
106111  1  0  0  0  0
106112  1  0  0  0  0
106113  1  0  0  0  0
107114  1  0  0  0  0
107115  1  0  0  0  0
107116  1  0  0  0  0
M  END
