   20
Created with kallisto
C      2.3430    1.1693    0.0460
C      3.1235    0.0089    0.0604
C      0.9364    1.1159   -0.0227
C      2.5176   -1.2403    0.0221
H      4.2067    0.0869    0.1081
C      0.3425   -0.1633   -0.0428
C      0.1269    2.4112   -0.0281
C      1.1289   -1.3255   -0.0250
H      3.1199   -2.1411    0.0355
Br    -1.5413   -0.4280   -0.0830
C     -0.1508    2.8839    1.4021
C      0.7706    3.5577   -0.8239
H     -0.8339    2.2324   -0.5228
H      0.6648   -2.3104   -0.0449
H      0.7780    3.0140    1.9688
H     -0.7759    2.1666    1.9442
H     -0.6769    3.8448    1.3982
H      1.7102    3.8987   -0.3777
H      0.1008    4.4252   -0.8510
H      0.9701    3.2580   -1.8585
