
  xtb     10082107313D
 xtb: 6.4.0 (f63f532)
105112  0     0  0            999 V2000
   -0.9452   -2.2374   -0.2085 N   0  0  0  0  0  0  0  0  0  0  0  0
   -2.2425   -1.8993   -0.2928 C   0  0  0  0  0  0  0  0  0  0  0  0
   -3.2012   -2.8060   -0.7626 C   0  0  0  0  0  0  0  0  0  0  0  0
   -2.8043   -4.0541   -1.1924 C   0  0  0  0  0  0  0  0  0  0  0  0
   -1.4494   -4.3717   -1.1512 C   0  0  0  0  0  0  0  0  0  0  0  0
   -0.5697   -3.4363   -0.6423 C   0  0  0  0  0  0  0  0  0  0  0  0
    0.4890   -3.6416   -0.5743 H   0  0  0  0  0  0  0  0  0  0  0  0
   -1.0923   -5.3300   -1.4912 H   0  0  0  0  0  0  0  0  0  0  0  0
   -4.2460   -2.5403   -0.7678 H   0  0  0  0  0  0  0  0  0  0  0  0
   -2.5954   -0.5483    0.1307 C   0  0  0  0  0  0  0  0  0  0  0  0
   -1.6911    0.1044    0.8849 N   0  0  0  0  0  0  0  0  0  0  0  0
   -1.9786    1.3375    1.2917 C   0  0  0  0  0  0  0  0  0  0  0  0
   -3.1518    1.9913    0.9737 C   0  0  0  0  0  0  0  0  0  0  0  0
   -4.0823    1.3380    0.1698 C   0  0  0  0  0  0  0  0  0  0  0  0
   -3.7963    0.0580   -0.2564 C   0  0  0  0  0  0  0  0  0  0  0  0
   -4.4864   -0.4612   -0.9018 H   0  0  0  0  0  0  0  0  0  0  0  0
   -3.3374    2.9876    1.3413 H   0  0  0  0  0  0  0  0  0  0  0  0
   -1.2242    1.8029    1.9055 H   0  0  0  0  0  0  0  0  0  0  0  0
    0.4215   -0.8165    0.9133 Ir  0  0  0  0  0  0  0  0  0  0  0  0
    0.8726   -2.2303    1.5405 H   0  0  0  0  0  0  0  0  0  0  0  0
    0.3590    0.4685   -0.7148 B   0  0  0  0  0  0  0  0  0  0  0  0
    0.1396   -0.0313   -1.9850 O   0  0  0  0  0  0  0  0  0  0  0  0
   -0.1907    1.0333   -2.8860 C   0  0  0  0  0  0  0  0  0  0  0  0
    0.5049    0.8076   -4.2269 C   0  0  0  0  0  0  0  0  0  0  0  0
    1.5750    0.6897   -4.0985 H   0  0  0  0  0  0  0  0  0  0  0  0
    0.3073    1.6425   -4.8942 H   0  0  0  0  0  0  0  0  0  0  0  0
    0.1143   -0.1020   -4.6775 H   0  0  0  0  0  0  0  0  0  0  0  0
   -1.7094    0.9879   -3.1089 C   0  0  0  0  0  0  0  0  0  0  0  0
   -2.0231    1.7457   -3.8207 H   0  0  0  0  0  0  0  0  0  0  0  0
   -1.9756    0.0067   -3.4970 H   0  0  0  0  0  0  0  0  0  0  0  0
   -2.2351    1.1324   -2.1680 H   0  0  0  0  0  0  0  0  0  0  0  0
    0.2717    2.3066   -2.0996 C   0  0  0  0  0  0  0  0  0  0  0  0
    0.3144    1.8439   -0.7433 O   0  0  0  0  0  0  0  0  0  0  0  0
    1.6937    2.7443   -2.4697 C   0  0  0  0  0  0  0  0  0  0  0  0
    2.3789    1.9169   -2.3038 H   0  0  0  0  0  0  0  0  0  0  0  0
    1.7465    3.0823   -3.5005 H   0  0  0  0  0  0  0  0  0  0  0  0
    1.9907    3.5591   -1.8143 H   0  0  0  0  0  0  0  0  0  0  0  0
   -0.6699    3.5056   -2.2024 C   0  0  0  0  0  0  0  0  0  0  0  0
   -1.6426    3.2798   -1.7755 H   0  0  0  0  0  0  0  0  0  0  0  0
   -0.2440    4.3394   -1.6497 H   0  0  0  0  0  0  0  0  0  0  0  0
   -0.7888    3.7992   -3.2420 H   0  0  0  0  0  0  0  0  0  0  0  0
    1.3747    0.7605    1.8792 B   0  0  0  0  0  0  0  0  0  0  0  0
    2.6210    1.3017    1.7307 O   0  0  0  0  0  0  0  0  0  0  0  0
    2.6913    2.5740    2.3864 C   0  0  0  0  0  0  0  0  0  0  0  0
    4.0498    2.7368    3.0656 C   0  0  0  0  0  0  0  0  0  0  0  0
    4.2545    1.9171    3.7453 H   0  0  0  0  0  0  0  0  0  0  0  0
    4.8238    2.7424    2.3035 H   0  0  0  0  0  0  0  0  0  0  0  0
    4.0837    3.6766    3.6101 H   0  0  0  0  0  0  0  0  0  0  0  0
    2.5474    3.6364    1.2898 C   0  0  0  0  0  0  0  0  0  0  0  0
    2.5683    4.6414    1.7008 H   0  0  0  0  0  0  0  0  0  0  0  0
    3.3734    3.5185    0.5931 H   0  0  0  0  0  0  0  0  0  0  0  0
    1.6235    3.4638    0.7437 H   0  0  0  0  0  0  0  0  0  0  0  0
    1.4627    2.5329    3.3610 C   0  0  0  0  0  0  0  0  0  0  0  0
    0.6517    1.4909    2.8028 O   0  0  0  0  0  0  0  0  0  0  0  0
    0.6512    3.8266    3.4273 C   0  0  0  0  0  0  0  0  0  0  0  0
    0.2403    4.0791    2.4552 H   0  0  0  0  0  0  0  0  0  0  0  0
   -0.1727    3.6922    4.1244 H   0  0  0  0  0  0  0  0  0  0  0  0
    1.2777    4.6414    3.7798 H   0  0  0  0  0  0  0  0  0  0  0  0
    1.8305    2.1073    4.7869 C   0  0  0  0  0  0  0  0  0  0  0  0
    2.3739    1.1673    4.7690 H   0  0  0  0  0  0  0  0  0  0  0  0
    2.4279    2.8659    5.2831 H   0  0  0  0  0  0  0  0  0  0  0  0
    0.9145    1.9527    5.3530 H   0  0  0  0  0  0  0  0  0  0  0  0
    2.2782   -1.3309    0.1741 B   0  0  0  0  0  0  0  0  0  0  0  0
    2.5292   -2.6691   -0.0998 O   0  0  0  0  0  0  0  0  0  0  0  0
    3.7530   -2.8269   -0.8279 C   0  0  0  0  0  0  0  0  0  0  0  0
    4.7845   -3.4395    0.1267 C   0  0  0  0  0  0  0  0  0  0  0  0
    4.9265   -2.7938    0.9874 H   0  0  0  0  0  0  0  0  0  0  0  0
    4.4085   -4.3971    0.4784 H   0  0  0  0  0  0  0  0  0  0  0  0
    5.7322   -3.5978   -0.3780 H   0  0  0  0  0  0  0  0  0  0  0  0
    3.5133   -3.7966   -1.9861 C   0  0  0  0  0  0  0  0  0  0  0  0
    3.2777   -4.7767   -1.5786 H   0  0  0  0  0  0  0  0  0  0  0  0
    4.4056   -3.8799   -2.5996 H   0  0  0  0  0  0  0  0  0  0  0  0
    2.6780   -3.4724   -2.5981 H   0  0  0  0  0  0  0  0  0  0  0  0
    4.0934   -1.3539   -1.2506 C   0  0  0  0  0  0  0  0  0  0  0  0
    3.2607   -0.5624   -0.3885 O   0  0  0  0  0  0  0  0  0  0  0  0
    5.5563   -0.9544   -1.0673 C   0  0  0  0  0  0  0  0  0  0  0  0
    6.1948   -1.5894   -1.6755 H   0  0  0  0  0  0  0  0  0  0  0  0
    5.6810    0.0770   -1.3847 H   0  0  0  0  0  0  0  0  0  0  0  0
    5.8538   -1.0242   -0.0272 H   0  0  0  0  0  0  0  0  0  0  0  0
    3.6622   -1.0339   -2.6878 C   0  0  0  0  0  0  0  0  0  0  0  0
    2.5928   -1.2003   -2.7911 H   0  0  0  0  0  0  0  0  0  0  0  0
    3.8625    0.0174   -2.8810 H   0  0  0  0  0  0  0  0  0  0  0  0
    4.2091   -1.6322   -3.4100 H   0  0  0  0  0  0  0  0  0  0  0  0
   -3.5307   -4.7673   -1.5516 H   0  0  0  0  0  0  0  0  0  0  0  0
   -5.0030    1.8221   -0.1198 H   0  0  0  0  0  0  0  0  0  0  0  0
    0.2359   -1.6814    2.9603 C   0  0  0  0  0  0  0  0  0  0  0  0
   -1.1264   -1.6038    3.2456 C   0  0  0  0  0  0  0  0  0  0  0  0
    1.1436   -1.7797    4.0327 C   0  0  0  0  0  0  0  0  0  0  0  0
   -1.5933   -1.3721    4.5274 C   0  0  0  0  0  0  0  0  0  0  0  0
   -1.8571   -1.7307    2.4622 H   0  0  0  0  0  0  0  0  0  0  0  0
    0.6464   -1.4699    5.2967 C   0  0  0  0  0  0  0  0  0  0  0  0
    2.5437   -2.3500    3.9107 C   0  0  0  0  0  0  0  0  0  0  0  0
   -0.6892   -1.2265    5.5605 C   0  0  0  0  0  0  0  0  0  0  0  0
   -2.6530   -1.2823    4.7189 H   0  0  0  0  0  0  0  0  0  0  0  0
    1.8099   -1.3452    6.8286 Br  0  0  0  0  0  0  0  0  0  0  0  0
    2.5436   -3.6573    3.1124 C   0  0  0  0  0  0  0  0  0  0  0  0
    3.5820   -1.3732    3.3644 C   0  0  0  0  0  0  0  0  0  0  0  0
    2.8641   -2.6166    4.9250 H   0  0  0  0  0  0  0  0  0  0  0  0
   -1.0143   -0.9784    6.5596 H   0  0  0  0  0  0  0  0  0  0  0  0
    1.7328   -4.3041    3.4425 H   0  0  0  0  0  0  0  0  0  0  0  0
    3.4847   -4.1769    3.2792 H   0  0  0  0  0  0  0  0  0  0  0  0
    2.4379   -3.4686    2.0500 H   0  0  0  0  0  0  0  0  0  0  0  0
    3.3167   -1.0404    2.3650 H   0  0  0  0  0  0  0  0  0  0  0  0
    4.5578   -1.8546    3.3485 H   0  0  0  0  0  0  0  0  0  0  0  0
    3.6512   -0.4991    4.0074 H   0  0  0  0  0  0  0  0  0  0  0  0
  1  2  4  0  0  0  0
  2  3  4  0  0  0  0
  3  4  4  0  0  0  0
  4  5  4  0  0  0  0
  1  6  4  0  0  0  0
  5  6  4  0  0  0  0
  6  7  1  0  0  0  0
  5  8  1  0  0  0  0
  3  9  1  0  0  0  0
  2 10  1  0  0  0  0
 10 11  4  0  0  0  0
 11 12  4  0  0  0  0
 12 13  4  0  0  0  0
 13 14  4  0  0  0  0
 10 15  4  0  0  0  0
 14 15  4  0  0  0  0
 15 16  1  0  0  0  0
 13 17  1  0  0  0  0
 12 18  1  0  0  0  0
  1 19  1  0  0  0  0
 11 19  1  0  0  0  0
 19 20  1  0  0  0  0
 19 21  1  0  0  0  0
 21 22  1  0  0  0  0
 22 23  1  0  0  0  0
 23 24  1  0  0  0  0
 24 25  1  0  0  0  0
 24 26  1  0  0  0  0
 24 27  1  0  0  0  0
 23 28  1  0  0  0  0
 28 29  1  0  0  0  0
 28 30  1  0  0  0  0
 28 31  1  0  0  0  0
 23 32  1  0  0  0  0
 21 33  1  0  0  0  0
 32 33  1  0  0  0  0
 32 34  1  0  0  0  0
 34 35  1  0  0  0  0
 34 36  1  0  0  0  0
 34 37  1  0  0  0  0
 32 38  1  0  0  0  0
 38 39  1  0  0  0  0
 38 40  1  0  0  0  0
 38 41  1  0  0  0  0
 19 42  1  0  0  0  0
 42 43  1  0  0  0  0
 43 44  1  0  0  0  0
 44 45  1  0  0  0  0
 45 46  1  0  0  0  0
 45 47  1  0  0  0  0
 45 48  1  0  0  0  0
 44 49  1  0  0  0  0
 49 50  1  0  0  0  0
 49 51  1  0  0  0  0
 49 52  1  0  0  0  0
 44 53  1  0  0  0  0
 42 54  1  0  0  0  0
 53 54  1  0  0  0  0
 53 55  1  0  0  0  0
 55 56  1  0  0  0  0
 55 57  1  0  0  0  0
 55 58  1  0  0  0  0
 53 59  1  0  0  0  0
 59 60  1  0  0  0  0
 59 61  1  0  0  0  0
 59 62  1  0  0  0  0
 19 63  1  0  0  0  0
 63 64  1  0  0  0  0
 64 65  1  0  0  0  0
 65 66  1  0  0  0  0
 66 67  1  0  0  0  0
 66 68  1  0  0  0  0
 66 69  1  0  0  0  0
 65 70  1  0  0  0  0
 70 71  1  0  0  0  0
 70 72  1  0  0  0  0
 70 73  1  0  0  0  0
 65 74  1  0  0  0  0
 63 75  1  0  0  0  0
 74 75  1  0  0  0  0
 74 76  1  0  0  0  0
 76 77  1  0  0  0  0
 76 78  1  0  0  0  0
 76 79  1  0  0  0  0
 74 80  1  0  0  0  0
 80 81  1  0  0  0  0
 80 82  1  0  0  0  0
 80 83  1  0  0  0  0
  4 84  1  0  0  0  0
 14 85  1  0  0  0  0
 19 86  1  0  0  0  0
 20 86  1  0  0  0  0
 86 87  4  0  0  0  0
 86 88  4  0  0  0  0
 87 89  4  0  0  0  0
 87 90  1  0  0  0  0
 88 91  4  0  0  0  0
 88 92  1  0  0  0  0
 89 93  4  0  0  0  0
 91 93  4  0  0  0  0
 89 94  1  0  0  0  0
 91 95  1  0  0  0  0
 92 96  1  0  0  0  0
 92 97  1  0  0  0  0
 92 98  1  0  0  0  0
 93 99  1  0  0  0  0
 96100  1  0  0  0  0
 96101  1  0  0  0  0
 96102  1  0  0  0  0
 97103  1  0  0  0  0
 97104  1  0  0  0  0
 97105  1  0  0  0  0
M  END
