21

C          0.91326        1.45936       -0.00311
C          2.10565        0.71059       -0.00184
C          2.10271       -0.68766       -0.00010
C          0.89942       -1.40076        0.00064
C         -0.30458       -0.68420        0.00048
N         -1.59853       -1.14700        0.00159
C         -2.35949       -0.07332        0.00088
C         -3.83998       -0.03255        0.00194
N         -1.59591        1.06708       -0.00097
C         -0.27117        0.70578       -0.00126
C          0.93866        2.95637       -0.00731
H          3.06514        1.22619       -0.00255
H          3.04522       -1.22960        0.00033
H          0.88674       -2.48459        0.00125
H         -4.25350       -1.04573        0.00268
H         -4.21192        0.48665       -0.88669
H         -4.21063        0.48742        0.89066
H         -1.94788        2.01259       -0.00162
H          1.96259        3.34347       -0.00666
H          0.43001        3.34274        0.88156
H          0.43337        3.33707       -0.90059
