
  xtb     01142213403D
 xtb: 6.4.1 (1a32961)
 93100  0     0  0            999 V2000
   -0.9427   -2.0560   -0.3159 N   0  0  0  0  0  0  0  0  0  0  0  0
   -2.2011   -1.6020   -0.4515 C   0  0  0  0  0  0  0  0  0  0  0  0
   -3.0938   -2.2124   -1.3407 C   0  0  0  0  0  0  0  0  0  0  0  0
   -2.6837   -3.2942   -2.0898 C   0  0  0  0  0  0  0  0  0  0  0  0
   -1.3794   -3.7549   -1.9353 C   0  0  0  0  0  0  0  0  0  0  0  0
   -0.5571   -3.1017   -1.0405 C   0  0  0  0  0  0  0  0  0  0  0  0
    0.4627   -3.4245   -0.8851 H   0  0  0  0  0  0  0  0  0  0  0  0
   -1.0157   -4.6001   -2.4967 H   0  0  0  0  0  0  0  0  0  0  0  0
   -4.1006   -1.8446   -1.4483 H   0  0  0  0  0  0  0  0  0  0  0  0
   -2.5655   -0.4530    0.3717 C   0  0  0  0  0  0  0  0  0  0  0  0
   -1.5969    0.0559    1.1594 N   0  0  0  0  0  0  0  0  0  0  0  0
   -1.8837    1.0973    1.9355 C   0  0  0  0  0  0  0  0  0  0  0  0
   -3.1278    1.6949    1.9789 C   0  0  0  0  0  0  0  0  0  0  0  0
   -4.1360    1.1877    1.1657 C   0  0  0  0  0  0  0  0  0  0  0  0
   -3.8477    0.1082    0.3577 C   0  0  0  0  0  0  0  0  0  0  0  0
   -4.6173   -0.2982   -0.2768 H   0  0  0  0  0  0  0  0  0  0  0  0
   -3.3062    2.5328    2.6332 H   0  0  0  0  0  0  0  0  0  0  0  0
   -1.0649    1.4640    2.5356 H   0  0  0  0  0  0  0  0  0  0  0  0
    0.4215   -0.8165    0.9133 Ir  0  0  0  0  0  0  0  0  0  0  0  0
    0.8726   -2.2303    1.5405 H   0  0  0  0  0  0  0  0  0  0  0  0
    0.4176    0.5488   -0.6580 B   0  0  0  0  0  0  0  0  0  0  0  0
   -0.1756    0.2080   -1.8592 O   0  0  0  0  0  0  0  0  0  0  0  0
   -0.2855    1.3638   -2.6973 C   0  0  0  0  0  0  0  0  0  0  0  0
    0.0304    0.9826   -4.1413 C   0  0  0  0  0  0  0  0  0  0  0  0
    0.9770    0.4557   -4.1995 H   0  0  0  0  0  0  0  0  0  0  0  0
    0.0667    1.8724   -4.7646 H   0  0  0  0  0  0  0  0  0  0  0  0
   -0.7493    0.3232   -4.5151 H   0  0  0  0  0  0  0  0  0  0  0  0
   -1.7412    1.8436   -2.6061 C   0  0  0  0  0  0  0  0  0  0  0  0
   -1.9169    2.6951   -3.2567 H   0  0  0  0  0  0  0  0  0  0  0  0
   -2.3945    1.0263   -2.9055 H   0  0  0  0  0  0  0  0  0  0  0  0
   -1.9831    2.1087   -1.5788 H   0  0  0  0  0  0  0  0  0  0  0  0
    0.7246    2.3601   -2.0383 C   0  0  0  0  0  0  0  0  0  0  0  0
    0.8192    1.8645   -0.6956 O   0  0  0  0  0  0  0  0  0  0  0  0
    2.1297    2.2587   -2.6448 C   0  0  0  0  0  0  0  0  0  0  0  0
    2.4753    1.2305   -2.5691 H   0  0  0  0  0  0  0  0  0  0  0  0
    2.1417    2.5933   -3.6781 H   0  0  0  0  0  0  0  0  0  0  0  0
    2.8066    2.8800   -2.0630 H   0  0  0  0  0  0  0  0  0  0  0  0
    0.2774    3.8206   -2.0267 C   0  0  0  0  0  0  0  0  0  0  0  0
   -0.6310    3.9513   -1.4471 H   0  0  0  0  0  0  0  0  0  0  0  0
    1.0577    4.4274   -1.5738 H   0  0  0  0  0  0  0  0  0  0  0  0
    0.1115    4.1660   -3.0439 H   0  0  0  0  0  0  0  0  0  0  0  0
    1.5863    0.6311    1.8671 B   0  0  0  0  0  0  0  0  0  0  0  0
    2.9585    0.7277    1.9038 O   0  0  0  0  0  0  0  0  0  0  0  0
    3.3422    2.0203    2.3951 C   0  0  0  0  0  0  0  0  0  0  0  0
    4.5932    1.8983    3.2630 C   0  0  0  0  0  0  0  0  0  0  0  0
    4.4605    1.1519    4.0393 H   0  0  0  0  0  0  0  0  0  0  0  0
    5.4305    1.5933    2.6404 H   0  0  0  0  0  0  0  0  0  0  0  0
    4.8265    2.8575    3.7171 H   0  0  0  0  0  0  0  0  0  0  0  0
    3.6498    2.8794    1.1630 C   0  0  0  0  0  0  0  0  0  0  0  0
    3.9428    3.8875    1.4412 H   0  0  0  0  0  0  0  0  0  0  0  0
    4.4613    2.4138    0.6087 H   0  0  0  0  0  0  0  0  0  0  0  0
    2.7740    2.8959    0.5191 H   0  0  0  0  0  0  0  0  0  0  0  0
    2.0551    2.4937    3.1500 C   0  0  0  0  0  0  0  0  0  0  0  0
    1.0298    1.6883    2.5526 O   0  0  0  0  0  0  0  0  0  0  0  0
    1.7091    3.9702    2.9674 C   0  0  0  0  0  0  0  0  0  0  0  0
    1.4864    4.1835    1.9274 H   0  0  0  0  0  0  0  0  0  0  0  0
    0.8291    4.2069    3.5605 H   0  0  0  0  0  0  0  0  0  0  0  0
    2.5348    4.5923    3.3022 H   0  0  0  0  0  0  0  0  0  0  0  0
    2.0804    2.1599    4.6470 C   0  0  0  0  0  0  0  0  0  0  0  0
    2.2896    1.1030    4.7886 H   0  0  0  0  0  0  0  0  0  0  0  0
    2.8211    2.7586    5.1682 H   0  0  0  0  0  0  0  0  0  0  0  0
    1.0990    2.3655    5.0681 H   0  0  0  0  0  0  0  0  0  0  0  0
    2.2782   -1.3309    0.1741 B   0  0  0  0  0  0  0  0  0  0  0  0
    3.0457   -2.3736    0.6542 O   0  0  0  0  0  0  0  0  0  0  0  0
    4.3583   -2.3328    0.0798 C   0  0  0  0  0  0  0  0  0  0  0  0
    5.2777   -1.7198    1.1420 C   0  0  0  0  0  0  0  0  0  0  0  0
    4.8783   -0.7535    1.4369 H   0  0  0  0  0  0  0  0  0  0  0  0
    5.2713   -2.3660    2.0164 H   0  0  0  0  0  0  0  0  0  0  0  0
    6.2967   -1.6222    0.7805 H   0  0  0  0  0  0  0  0  0  0  0  0
    4.8225   -3.7552   -0.2328 C   0  0  0  0  0  0  0  0  0  0  0  0
    4.8996   -4.3097    0.6988 H   0  0  0  0  0  0  0  0  0  0  0  0
    5.7972   -3.7333   -0.7121 H   0  0  0  0  0  0  0  0  0  0  0  0
    4.1146   -4.2707   -0.8732 H   0  0  0  0  0  0  0  0  0  0  0  0
    4.1602   -1.4062   -1.1710 C   0  0  0  0  0  0  0  0  0  0  0  0
    2.9274   -0.7304   -0.8783 O   0  0  0  0  0  0  0  0  0  0  0  0
    5.2613   -0.3682   -1.3790 C   0  0  0  0  0  0  0  0  0  0  0  0
    6.2227   -0.8571   -1.5101 H   0  0  0  0  0  0  0  0  0  0  0  0
    5.0370    0.2138   -2.2693 H   0  0  0  0  0  0  0  0  0  0  0  0
    5.3041    0.3090   -0.5333 H   0  0  0  0  0  0  0  0  0  0  0  0
    3.9498   -2.1848   -2.4767 C   0  0  0  0  0  0  0  0  0  0  0  0
    3.1313   -2.8907   -2.3646 H   0  0  0  0  0  0  0  0  0  0  0  0
    3.6793   -1.4810   -3.2604 H   0  0  0  0  0  0  0  0  0  0  0  0
    4.8540   -2.7094   -2.7694 H   0  0  0  0  0  0  0  0  0  0  0  0
   -3.3612   -3.7721   -2.7809 H   0  0  0  0  0  0  0  0  0  0  0  0
   -5.1228    1.6255    1.1663 H   0  0  0  0  0  0  0  0  0  0  0  0
    0.2359   -1.6814    2.9603 C   0  0  0  0  0  0  0  0  0  0  0  0
   -1.3440   -2.2029    3.4753 S   0  0  0  0  0  0  0  0  0  0  0  0
    1.0653   -1.6002    4.0420 C   0  0  0  0  0  0  0  0  0  0  0  0
   -0.8684   -2.2224    5.1356 C   0  0  0  0  0  0  0  0  0  0  0  0
    0.4363   -1.8791    5.2784 C   0  0  0  0  0  0  0  0  0  0  0  0
    2.1049   -1.3419    3.9445 H   0  0  0  0  0  0  0  0  0  0  0  0
   -1.5843   -2.4846    5.8888 H   0  0  0  0  0  0  0  0  0  0  0  0
    0.9390   -1.8304    6.2295 H   0  0  0  0  0  0  0  0  0  0  0  0
  1  2  4  0  0  0  0
  2  3  4  0  0  0  0
  3  4  4  0  0  0  0
  4  5  4  0  0  0  0
  1  6  4  0  0  0  0
  5  6  4  0  0  0  0
  6  7  1  0  0  0  0
  5  8  1  0  0  0  0
  3  9  1  0  0  0  0
  2 10  1  0  0  0  0
 10 11  4  0  0  0  0
 11 12  4  0  0  0  0
 12 13  4  0  0  0  0
 13 14  4  0  0  0  0
 10 15  4  0  0  0  0
 14 15  4  0  0  0  0
 15 16  1  0  0  0  0
 13 17  1  0  0  0  0
 12 18  1  0  0  0  0
  1 19  1  0  0  0  0
 11 19  1  0  0  0  0
 19 20  1  0  0  0  0
 19 21  1  0  0  0  0
 21 22  1  0  0  0  0
 22 23  1  0  0  0  0
 23 24  1  0  0  0  0
 24 25  1  0  0  0  0
 24 26  1  0  0  0  0
 24 27  1  0  0  0  0
 23 28  1  0  0  0  0
 28 29  1  0  0  0  0
 28 30  1  0  0  0  0
 28 31  1  0  0  0  0
 23 32  1  0  0  0  0
 21 33  1  0  0  0  0
 32 33  1  0  0  0  0
 32 34  1  0  0  0  0
 34 35  1  0  0  0  0
 34 36  1  0  0  0  0
 34 37  1  0  0  0  0
 32 38  1  0  0  0  0
 38 39  1  0  0  0  0
 38 40  1  0  0  0  0
 38 41  1  0  0  0  0
 19 42  1  0  0  0  0
 42 43  1  0  0  0  0
 43 44  1  0  0  0  0
 44 45  1  0  0  0  0
 45 46  1  0  0  0  0
 45 47  1  0  0  0  0
 45 48  1  0  0  0  0
 44 49  1  0  0  0  0
 49 50  1  0  0  0  0
 49 51  1  0  0  0  0
 49 52  1  0  0  0  0
 44 53  1  0  0  0  0
 42 54  1  0  0  0  0
 53 54  1  0  0  0  0
 53 55  1  0  0  0  0
 55 56  1  0  0  0  0
 55 57  1  0  0  0  0
 55 58  1  0  0  0  0
 53 59  1  0  0  0  0
 59 60  1  0  0  0  0
 59 61  1  0  0  0  0
 59 62  1  0  0  0  0
 19 63  1  0  0  0  0
 63 64  1  0  0  0  0
 64 65  1  0  0  0  0
 65 66  1  0  0  0  0
 66 67  1  0  0  0  0
 66 68  1  0  0  0  0
 66 69  1  0  0  0  0
 65 70  1  0  0  0  0
 70 71  1  0  0  0  0
 70 72  1  0  0  0  0
 70 73  1  0  0  0  0
 65 74  1  0  0  0  0
 63 75  1  0  0  0  0
 74 75  1  0  0  0  0
 74 76  1  0  0  0  0
 76 77  1  0  0  0  0
 76 78  1  0  0  0  0
 76 79  1  0  0  0  0
 74 80  1  0  0  0  0
 80 81  1  0  0  0  0
 80 82  1  0  0  0  0
 80 83  1  0  0  0  0
  4 84  1  0  0  0  0
 14 85  1  0  0  0  0
 19 86  1  0  0  0  0
 20 86  1  0  0  0  0
 86 87  1  0  0  0  0
 86 88  2  0  0  0  0
 87 89  1  0  0  0  0
 88 90  4  0  0  0  0
 89 90  2  0  0  0  0
 88 91  1  0  0  0  0
 89 92  1  0  0  0  0
 90 93  1  0  0  0  0
M  END
