
  xtb     01142213433D
 xtb: 6.4.1 (1a32961)
 15 15  0     0  0            999 V2000
   -0.1300    1.1634   -0.0066 C   0  0  0  0  0  0  0  0  0  0  0  0
   -0.9957    0.1520   -0.0098 O   0  0  0  0  0  0  0  0  0  0  0  0
   -0.2855   -0.9948   -0.0055 C   0  0  0  0  0  0  0  0  0  0  0  0
    1.0459   -0.7328    0.0002 C   0  0  0  0  0  0  0  0  0  0  0  0
    1.1589    0.6898   -0.0007 C   0  0  0  0  0  0  0  0  0  0  0  0
    2.4030    1.4598    0.0049 C   0  0  0  0  0  0  0  0  0  0  0  0
    3.5148    0.9773    0.0108 O   0  0  0  0  0  0  0  0  0  0  0  0
    2.1746    2.7790    0.0045 O   0  0  0  0  0  0  0  0  0  0  0  0
    3.3228    3.6262    0.0109 C   0  0  0  0  0  0  0  0  0  0  0  0
   -0.5164    2.1627   -0.0096 H   0  0  0  0  0  0  0  0  0  0  0  0
   -0.8378   -1.9127   -0.0072 H   0  0  0  0  0  0  0  0  0  0  0  0
    1.8588   -1.4275    0.0045 H   0  0  0  0  0  0  0  0  0  0  0  0
    2.9391    4.6426    0.0094 H   0  0  0  0  0  0  0  0  0  0  0  0
    3.9339    3.4389   -0.8740 H   0  0  0  0  0  0  0  0  0  0  0  0
    3.9247    3.4382    0.9019 H   0  0  0  0  0  0  0  0  0  0  0  0
  1  2  1  0  0  0  0
  2  3  1  0  0  0  0
  3  4  2  0  0  0  0
  1  5  2  0  0  0  0
  4  5  4  0  0  0  0
  5  6  1  0  0  0  0
  6  7  2  0  0  0  0
  6  8  1  0  0  0  0
  8  9  1  0  0  0  0
  1 10  1  0  0  0  0
  3 11  1  0  0  0  0
  4 12  1  0  0  0  0
  9 13  1  0  0  0  0
  9 14  1  0  0  0  0
  9 15  1  0  0  0  0
M  END
