
  xtb     10082107093D
 xtb: 6.4.0 (f63f532)
 13 13  0     0  0            999 V2000
    0.6976   -0.0121   -0.0123 N   0  0  0  0  0  0  0  0  0  0  0  0
    2.1340    0.0157   -0.0303 C   0  0  0  0  0  0  0  0  0  0  0  0
   -0.0798   -1.1236   -0.0087 C   0  0  0  0  0  0  0  0  0  0  0  0
   -1.3953   -0.7408   -0.0023 C   0  0  0  0  0  0  0  0  0  0  0  0
   -1.4122    0.6669   -0.0020 C   0  0  0  0  0  0  0  0  0  0  0  0
   -0.1068    1.0816   -0.0082 C   0  0  0  0  0  0  0  0  0  0  0  0
    2.5148   -1.0020    0.0301 H   0  0  0  0  0  0  0  0  0  0  0  0
    2.5146    0.5882    0.8183 H   0  0  0  0  0  0  0  0  0  0  0  0
    2.4979    0.4759   -0.9521 H   0  0  0  0  0  0  0  0  0  0  0  0
    0.3521   -2.1059   -0.0107 H   0  0  0  0  0  0  0  0  0  0  0  0
   -2.2489   -1.3911    0.0025 H   0  0  0  0  0  0  0  0  0  0  0  0
   -2.2814    1.2964    0.0029 H   0  0  0  0  0  0  0  0  0  0  0  0
    0.3041    2.0727   -0.0101 H   0  0  0  0  0  0  0  0  0  0  0  0
  1  2  1  0  0  0  0
  1  3  4  0  0  0  0
  3  4  2  0  0  0  0
  4  5  4  0  0  0  0
  1  6  4  0  0  0  0
  5  6  2  0  0  0  0
  2  7  1  0  0  0  0
  2  8  1  0  0  0  0
  2  9  1  0  0  0  0
  3 10  1  0  0  0  0
  4 11  1  0  0  0  0
  5 12  1  0  0  0  0
  6 13  1  0  0  0  0
M  END
