
  xtb     10082107203D
 xtb: 6.4.0 (f63f532)
108119  0     0  0            999 V2000
   -1.0257   -2.0667   -0.5364 N   0  0  0  0  0  0  0  0  0  0  0  0
   -2.1821   -1.5036   -0.9172 C   0  0  0  0  0  0  0  0  0  0  0  0
   -2.8368   -1.8959   -2.0846 C   0  0  0  0  0  0  0  0  0  0  0  0
   -2.2709   -2.8683   -2.8871 C   0  0  0  0  0  0  0  0  0  0  0  0
   -1.0710   -3.4416   -2.4884 C   0  0  0  0  0  0  0  0  0  0  0  0
   -0.4986   -3.0098   -1.3056 C   0  0  0  0  0  0  0  0  0  0  0  0
    0.4257   -3.4385   -0.9441 H   0  0  0  0  0  0  0  0  0  0  0  0
   -0.5963   -4.2088   -3.0786 H   0  0  0  0  0  0  0  0  0  0  0  0
   -3.7794   -1.4491   -2.3571 H   0  0  0  0  0  0  0  0  0  0  0  0
   -2.7323   -0.4891   -0.0135 C   0  0  0  0  0  0  0  0  0  0  0  0
   -1.5486    0.8346    1.6657 N   0  0  0  0  0  0  0  0  0  0  0  0
   -2.0565    1.6747    2.6974 C   0  0  0  0  0  0  0  0  0  0  0  0
   -3.5822    1.9044    2.6887 C   0  0  0  0  0  0  0  0  0  0  0  0
   -4.3730    1.1877    0.7755 C   0  0  0  0  0  0  0  0  0  0  0  0
   -3.8036    0.2793   -0.2526 C   0  0  0  0  0  0  0  0  0  0  0  0
   -4.2880    0.2722   -1.2172 H   0  0  0  0  0  0  0  0  0  0  0  0
   -3.9399    2.5467    3.4872 H   0  0  0  0  0  0  0  0  0  0  0  0
   -1.4075    1.8577    3.5381 H   0  0  0  0  0  0  0  0  0  0  0  0
    0.4215   -0.8165    0.9133 Ir  0  0  0  0  0  0  0  0  0  0  0  0
    0.8726   -2.2303    1.5405 H   0  0  0  0  0  0  0  0  0  0  0  0
    0.3872    0.5550   -0.6607 B   0  0  0  0  0  0  0  0  0  0  0  0
   -0.2108    0.2265   -1.8689 O   0  0  0  0  0  0  0  0  0  0  0  0
   -0.2307    1.3523   -2.7470 C   0  0  0  0  0  0  0  0  0  0  0  0
    0.1091    0.8958   -4.1646 C   0  0  0  0  0  0  0  0  0  0  0  0
    1.0390    0.3374   -4.1747 H   0  0  0  0  0  0  0  0  0  0  0  0
    0.1876    1.7530   -4.8289 H   0  0  0  0  0  0  0  0  0  0  0  0
   -0.6825    0.2422   -4.5240 H   0  0  0  0  0  0  0  0  0  0  0  0
   -1.6596    1.9158   -2.7354 C   0  0  0  0  0  0  0  0  0  0  0  0
   -1.7524    2.7655   -3.4057 H   0  0  0  0  0  0  0  0  0  0  0  0
   -2.3424    1.1327   -3.0586 H   0  0  0  0  0  0  0  0  0  0  0  0
   -1.9386    2.2093   -1.7258 H   0  0  0  0  0  0  0  0  0  0  0  0
    0.8108    2.3174   -2.0909 C   0  0  0  0  0  0  0  0  0  0  0  0
    0.8591    1.8543   -0.7381 O   0  0  0  0  0  0  0  0  0  0  0  0
    2.2194    2.1397   -2.6733 C   0  0  0  0  0  0  0  0  0  0  0  0
    2.5224    1.1024   -2.5533 H   0  0  0  0  0  0  0  0  0  0  0  0
    2.2581    2.4336   -3.7185 H   0  0  0  0  0  0  0  0  0  0  0  0
    2.9142    2.7564   -2.1079 H   0  0  0  0  0  0  0  0  0  0  0  0
    0.4336    3.7984   -2.1256 C   0  0  0  0  0  0  0  0  0  0  0  0
   -0.4866    3.9876   -1.5807 H   0  0  0  0  0  0  0  0  0  0  0  0
    1.2275    4.3784   -1.6602 H   0  0  0  0  0  0  0  0  0  0  0  0
    0.3175    4.1293   -3.1547 H   0  0  0  0  0  0  0  0  0  0  0  0
    1.5946    0.6552    1.7568 B   0  0  0  0  0  0  0  0  0  0  0  0
    2.9670    0.7568    1.7601 O   0  0  0  0  0  0  0  0  0  0  0  0
    3.3592    2.0460    2.2474 C   0  0  0  0  0  0  0  0  0  0  0  0
    4.5963    1.9078    3.1343 C   0  0  0  0  0  0  0  0  0  0  0  0
    4.4359    1.1738    3.9169 H   0  0  0  0  0  0  0  0  0  0  0  0
    5.4342    1.5754    2.5266 H   0  0  0  0  0  0  0  0  0  0  0  0
    4.8469    2.8670    3.5792 H   0  0  0  0  0  0  0  0  0  0  0  0
    3.7046    2.8902    1.0148 C   0  0  0  0  0  0  0  0  0  0  0  0
    4.0024    3.8981    1.2885 H   0  0  0  0  0  0  0  0  0  0  0  0
    4.5240    2.4104    0.4839 H   0  0  0  0  0  0  0  0  0  0  0  0
    2.8432    2.9098    0.3527 H   0  0  0  0  0  0  0  0  0  0  0  0
    2.0662    2.5439    2.9835 C   0  0  0  0  0  0  0  0  0  0  0  0
    1.0387    1.7155    2.4263 O   0  0  0  0  0  0  0  0  0  0  0  0
    1.7154    4.0106    2.7372 C   0  0  0  0  0  0  0  0  0  0  0  0
    1.5049    4.1789    1.6864 H   0  0  0  0  0  0  0  0  0  0  0  0
    0.8245    4.2629    3.3069 H   0  0  0  0  0  0  0  0  0  0  0  0
    2.5315    4.6532    3.0564 H   0  0  0  0  0  0  0  0  0  0  0  0
    2.0959    2.2772    4.4941 C   0  0  0  0  0  0  0  0  0  0  0  0
    2.2817    1.2231    4.6794 H   0  0  0  0  0  0  0  0  0  0  0  0
    2.8516    2.8826    4.9854 H   0  0  0  0  0  0  0  0  0  0  0  0
    1.1219    2.5220    4.9113 H   0  0  0  0  0  0  0  0  0  0  0  0
    2.2782   -1.3309    0.1741 B   0  0  0  0  0  0  0  0  0  0  0  0
    3.0900   -2.2796    0.7549 O   0  0  0  0  0  0  0  0  0  0  0  0
    4.3449   -2.3451    0.0663 C   0  0  0  0  0  0  0  0  0  0  0  0
    5.3546   -1.5669    0.9159 C   0  0  0  0  0  0  0  0  0  0  0  0
    4.9758   -0.5617    1.0767 H   0  0  0  0  0  0  0  0  0  0  0  0
    5.4356   -2.0530    1.8848 H   0  0  0  0  0  0  0  0  0  0  0  0
    6.3342   -1.5403    0.4488 H   0  0  0  0  0  0  0  0  0  0  0  0
    4.7877   -3.8039   -0.0444 C   0  0  0  0  0  0  0  0  0  0  0  0
    4.9709   -4.1904    0.9546 H   0  0  0  0  0  0  0  0  0  0  0  0
    5.7038   -3.8740   -0.6242 H   0  0  0  0  0  0  0  0  0  0  0  0
    4.0192   -4.4154   -0.5048 H   0  0  0  0  0  0  0  0  0  0  0  0
    4.0238   -1.6428   -1.2998 C   0  0  0  0  0  0  0  0  0  0  0  0
    2.8368   -0.8910   -1.0026 O   0  0  0  0  0  0  0  0  0  0  0  0
    5.1123   -0.6986   -1.8061 C   0  0  0  0  0  0  0  0  0  0  0  0
    6.0481   -1.2365   -1.9304 H   0  0  0  0  0  0  0  0  0  0  0  0
    4.8124   -0.2906   -2.7681 H   0  0  0  0  0  0  0  0  0  0  0  0
    5.2509    0.1266   -1.1163 H   0  0  0  0  0  0  0  0  0  0  0  0
    3.6595   -2.6340   -2.4135 C   0  0  0  0  0  0  0  0  0  0  0  0
    2.8585   -3.2887   -2.0816 H   0  0  0  0  0  0  0  0  0  0  0  0
    3.2982   -2.0737   -3.2724 H   0  0  0  0  0  0  0  0  0  0  0  0
    4.5215   -3.2228   -2.7114 H   0  0  0  0  0  0  0  0  0  0  0  0
   -2.7583   -3.1792   -3.7993 H   0  0  0  0  0  0  0  0  0  0  0  0
   -5.3459    1.5475    0.4359 H   0  0  0  0  0  0  0  0  0  0  0  0
    0.2359   -1.6814    2.9603 C   0  0  0  0  0  0  0  0  0  0  0  0
   -1.0002   -2.0636    3.4861 C   0  0  0  0  0  0  0  0  0  0  0  0
    1.2786   -1.4437    3.8603 C   0  0  0  0  0  0  0  0  0  0  0  0
   -2.1783   -2.4250    2.6107 C   0  0  0  0  0  0  0  0  0  0  0  0
   -1.1977   -2.0674    4.8646 C   0  0  0  0  0  0  0  0  0  0  0  0
    1.0806   -1.4649    5.2285 C   0  0  0  0  0  0  0  0  0  0  0  0
    2.2637   -1.2437    3.4666 H   0  0  0  0  0  0  0  0  0  0  0  0
   -2.8248   -1.1378    2.2046 C   0  0  0  0  0  0  0  0  0  0  0  0
   -1.8274   -2.9441    1.7175 H   0  0  0  0  0  0  0  0  0  0  0  0
   -2.8817   -3.0559    3.1549 H   0  0  0  0  0  0  0  0  0  0  0  0
   -0.1731   -1.7634    5.7390 C   0  0  0  0  0  0  0  0  0  0  0  0
   -2.1721   -2.3303    5.2556 H   0  0  0  0  0  0  0  0  0  0  0  0
    1.9022   -1.2618    5.9020 H   0  0  0  0  0  0  0  0  0  0  0  0
   -2.0561   -0.4259    1.2376 N   0  0  0  0  0  0  0  0  0  0  0  0
   -3.9610   -0.6343    2.6781 C   0  0  0  0  0  0  0  0  0  0  0  0
   -0.3436   -1.7792    6.8061 H   0  0  0  0  0  0  0  0  0  0  0  0
   -1.9618    2.1378    1.2745 C   0  0  0  0  0  0  0  0  0  0  0  0
   -4.4703    0.7078    2.2716 C   0  0  0  0  0  0  0  0  0  0  0  0
   -4.5279   -1.1738    3.4233 H   0  0  0  0  0  0  0  0  0  0  0  0
   -3.4855    2.3711    1.2327 C   0  0  0  0  0  0  0  0  0  0  0  0
   -1.2221    2.7541    0.7882 H   0  0  0  0  0  0  0  0  0  0  0  0
   -5.4917    0.8326    2.6349 H   0  0  0  0  0  0  0  0  0  0  0  0
   -3.7781    3.3675    0.9151 H   0  0  0  0  0  0  0  0  0  0  0  0
  1  2  4  0  0  0  0
  2  3  4  0  0  0  0
  3  4  4  0  0  0  0
  4  5  4  0  0  0  0
  1  6  4  0  0  0  0
  5  6  4  0  0  0  0
  6  7  1  0  0  0  0
  5  8  1  0  0  0  0
  3  9  1  0  0  0  0
  2 10  1  0  0  0  0
 11 12  1  0  0  0  0
 12 13  1  0  0  0  0
 10 15  2  0  0  0  0
 14 15  1  0  0  0  0
 15 16  1  0  0  0  0
 13 17  1  0  0  0  0
 12 18  1  0  0  0  0
  1 19  1  0  0  0  0
 19 20  1  0  0  0  0
 19 21  1  0  0  0  0
 21 22  1  0  0  0  0
 22 23  1  0  0  0  0
 23 24  1  0  0  0  0
 24 25  1  0  0  0  0
 24 26  1  0  0  0  0
 24 27  1  0  0  0  0
 23 28  1  0  0  0  0
 28 29  1  0  0  0  0
 28 30  1  0  0  0  0
 28 31  1  0  0  0  0
 23 32  1  0  0  0  0
 21 33  1  0  0  0  0
 32 33  1  0  0  0  0
 32 34  1  0  0  0  0
 34 35  1  0  0  0  0
 34 36  1  0  0  0  0
 34 37  1  0  0  0  0
 32 38  1  0  0  0  0
 38 39  1  0  0  0  0
 38 40  1  0  0  0  0
 38 41  1  0  0  0  0
 19 42  1  0  0  0  0
 42 43  1  0  0  0  0
 43 44  1  0  0  0  0
 44 45  1  0  0  0  0
 45 46  1  0  0  0  0
 45 47  1  0  0  0  0
 45 48  1  0  0  0  0
 44 49  1  0  0  0  0
 49 50  1  0  0  0  0
 49 51  1  0  0  0  0
 49 52  1  0  0  0  0
 44 53  1  0  0  0  0
 42 54  1  0  0  0  0
 53 54  1  0  0  0  0
 53 55  1  0  0  0  0
 55 56  1  0  0  0  0
 55 57  1  0  0  0  0
 55 58  1  0  0  0  0
 53 59  1  0  0  0  0
 59 60  1  0  0  0  0
 59 61  1  0  0  0  0
 59 62  1  0  0  0  0
 19 63  1  0  0  0  0
 63 64  1  0  0  0  0
 64 65  1  0  0  0  0
 65 66  1  0  0  0  0
 66 67  1  0  0  0  0
 66 68  1  0  0  0  0
 66 69  1  0  0  0  0
 65 70  1  0  0  0  0
 70 71  1  0  0  0  0
 70 72  1  0  0  0  0
 70 73  1  0  0  0  0
 65 74  1  0  0  0  0
 63 75  1  0  0  0  0
 74 75  1  0  0  0  0
 74 76  1  0  0  0  0
 76 77  1  0  0  0  0
 76 78  1  0  0  0  0
 76 79  1  0  0  0  0
 74 80  1  0  0  0  0
 80 81  1  0  0  0  0
 80 82  1  0  0  0  0
 80 83  1  0  0  0  0
  4 84  1  0  0  0  0
 14 85  1  0  0  0  0
 19 86  1  0  0  0  0
 20 86  1  0  0  0  0
 86 87  4  0  0  0  0
 86 88  4  0  0  0  0
 87 89  1  0  0  0  0
 87 90  4  0  0  0  0
 88 91  4  0  0  0  0
 88 92  1  0  0  0  0
 89 93  1  0  0  0  0
 89 94  1  0  0  0  0
 89 95  1  0  0  0  0
 90 96  4  0  0  0  0
 91 96  4  0  0  0  0
 90 97  1  0  0  0  0
 91 98  1  0  0  0  0
 10 99  1  0  0  0  0
 11 99  1  0  0  0  0
 93 99  1  0  0  0  0
 93100  2  0  0  0  0
 96101  1  0  0  0  0
 11102  1  0  0  0  0
 12102  1  0  0  0  0
 13103  1  0  0  0  0
 14103  1  0  0  0  0
100103  1  0  0  0  0
100104  1  0  0  0  0
 13105  1  0  0  0  0
 14105  1  0  0  0  0
102105  1  0  0  0  0
102106  1  0  0  0  0
103107  1  0  0  0  0
105108  1  0  0  0  0
M  END
