
  xtb     01142214263D
 xtb: 6.4.1 (1a32961)
129137  0     0  0            999 V2000
   -0.8923   -2.0897   -0.3448 N   0  0  0  0  0  0  0  0  0  0  0  0
   -2.1697   -1.6869   -0.4772 C   0  0  0  0  0  0  0  0  0  0  0  0
   -3.0597   -2.3802   -1.3094 C   0  0  0  0  0  0  0  0  0  0  0  0
   -2.6184   -3.4664   -2.0313 C   0  0  0  0  0  0  0  0  0  0  0  0
   -1.2849   -3.8526   -1.9070 C   0  0  0  0  0  0  0  0  0  0  0  0
   -0.4768   -3.1388   -1.0479 C   0  0  0  0  0  0  0  0  0  0  0  0
    0.5598   -3.4106   -0.9045 H   0  0  0  0  0  0  0  0  0  0  0  0
   -0.8955   -4.6924   -2.4597 H   0  0  0  0  0  0  0  0  0  0  0  0
   -4.0911   -2.0770   -1.3841 H   0  0  0  0  0  0  0  0  0  0  0  0
   -2.5522   -0.5013    0.2766 C   0  0  0  0  0  0  0  0  0  0  0  0
   -1.6216    0.0123    1.1102 N   0  0  0  0  0  0  0  0  0  0  0  0
   -1.9323    1.0946    1.8210 C   0  0  0  0  0  0  0  0  0  0  0  0
   -3.1503    1.7367    1.7401 C   0  0  0  0  0  0  0  0  0  0  0  0
   -4.1113    1.2339    0.8655 C   0  0  0  0  0  0  0  0  0  0  0  0
   -3.8049    0.1085    0.1325 C   0  0  0  0  0  0  0  0  0  0  0  0
   -4.5326   -0.2926   -0.5535 H   0  0  0  0  0  0  0  0  0  0  0  0
   -3.3488    2.6077    2.3436 H   0  0  0  0  0  0  0  0  0  0  0  0
   -1.1508    1.4542    2.4726 H   0  0  0  0  0  0  0  0  0  0  0  0
    0.4215   -0.8165    0.9133 Ir  0  0  0  0  0  0  0  0  0  0  0  0
    0.8726   -2.2303    1.5405 H   0  0  0  0  0  0  0  0  0  0  0  0
    0.3646    0.6016   -0.6152 B   0  0  0  0  0  0  0  0  0  0  0  0
   -0.2790    0.2778   -1.7967 O   0  0  0  0  0  0  0  0  0  0  0  0
   -0.4024    1.4379   -2.6240 C   0  0  0  0  0  0  0  0  0  0  0  0
   -0.1490    1.0614   -4.0819 C   0  0  0  0  0  0  0  0  0  0  0  0
    0.7860    0.5200   -4.1807 H   0  0  0  0  0  0  0  0  0  0  0  0
   -0.1226    1.9552   -4.7001 H   0  0  0  0  0  0  0  0  0  0  0  0
   -0.9533    0.4174   -4.4300 H   0  0  0  0  0  0  0  0  0  0  0  0
   -1.8445    1.9455   -2.4768 C   0  0  0  0  0  0  0  0  0  0  0  0
   -2.0276    2.8008   -3.1203 H   0  0  0  0  0  0  0  0  0  0  0  0
   -2.5259    1.1423   -2.7512 H   0  0  0  0  0  0  0  0  0  0  0  0
   -2.0434    2.2151   -1.4413 H   0  0  0  0  0  0  0  0  0  0  0  0
    0.6489    2.4135   -2.0004 C   0  0  0  0  0  0  0  0  0  0  0  0
    0.7810    1.9142   -0.6635 O   0  0  0  0  0  0  0  0  0  0  0  0
    2.0294    2.2840   -2.6563 C   0  0  0  0  0  0  0  0  0  0  0  0
    2.3515    1.2466   -2.6037 H   0  0  0  0  0  0  0  0  0  0  0  0
    2.0152    2.6295   -3.6860 H   0  0  0  0  0  0  0  0  0  0  0  0
    2.7407    2.8819   -2.0913 H   0  0  0  0  0  0  0  0  0  0  0  0
    0.2311    3.8824   -1.9732 C   0  0  0  0  0  0  0  0  0  0  0  0
   -0.6493    4.0306   -1.3556 H   0  0  0  0  0  0  0  0  0  0  0  0
    1.0414    4.4757   -1.5560 H   0  0  0  0  0  0  0  0  0  0  0  0
    0.0276    4.2292   -2.9832 H   0  0  0  0  0  0  0  0  0  0  0  0
    1.5372    0.6748    1.8452 B   0  0  0  0  0  0  0  0  0  0  0  0
    2.9016    0.8543    1.8245 O   0  0  0  0  0  0  0  0  0  0  0  0
    3.2394    2.1374    2.3688 C   0  0  0  0  0  0  0  0  0  0  0  0
    4.5123    2.0276    3.2068 C   0  0  0  0  0  0  0  0  0  0  0  0
    4.4247    1.2409    3.9485 H   0  0  0  0  0  0  0  0  0  0  0  0
    5.3480    1.7863    2.5550 H   0  0  0  0  0  0  0  0  0  0  0  0
    4.7157    2.9741    3.7004 H   0  0  0  0  0  0  0  0  0  0  0  0
    3.4901    3.0659    1.1743 C   0  0  0  0  0  0  0  0  0  0  0  0
    3.7389    4.0732    1.4948 H   0  0  0  0  0  0  0  0  0  0  0  0
    4.3165    2.6651    0.5914 H   0  0  0  0  0  0  0  0  0  0  0  0
    2.6066    3.0713    0.5411 H   0  0  0  0  0  0  0  0  0  0  0  0
    1.9507    2.5191    3.1737 C   0  0  0  0  0  0  0  0  0  0  0  0
    0.9506    1.6788    2.5851 O   0  0  0  0  0  0  0  0  0  0  0  0
    1.5221    3.9799    3.0461 C   0  0  0  0  0  0  0  0  0  0  0  0
    1.2675    4.2145    2.0179 H   0  0  0  0  0  0  0  0  0  0  0  0
    0.6418    4.1474    3.6619 H   0  0  0  0  0  0  0  0  0  0  0  0
    2.3179    4.6371    3.3866 H   0  0  0  0  0  0  0  0  0  0  0  0
    2.0362    2.1428    4.6585 C   0  0  0  0  0  0  0  0  0  0  0  0
    2.2886    1.0908    4.7567 H   0  0  0  0  0  0  0  0  0  0  0  0
    2.7684    2.7546    5.1765 H   0  0  0  0  0  0  0  0  0  0  0  0
    1.0600    2.2961    5.1121 H   0  0  0  0  0  0  0  0  0  0  0  0
    2.2782   -1.3309    0.1741 B   0  0  0  0  0  0  0  0  0  0  0  0
    3.1605   -2.2211    0.7496 O   0  0  0  0  0  0  0  0  0  0  0  0
    4.4181   -2.1899    0.0631 C   0  0  0  0  0  0  0  0  0  0  0  0
    5.3637   -1.3424    0.9211 C   0  0  0  0  0  0  0  0  0  0  0  0
    4.9055   -0.3728    1.0945 H   0  0  0  0  0  0  0  0  0  0  0  0
    5.4861   -1.8317    1.8840 H   0  0  0  0  0  0  0  0  0  0  0  0
    6.3371   -1.2320    0.4533 H   0  0  0  0  0  0  0  0  0  0  0  0
    4.9728   -3.6097   -0.0517 C   0  0  0  0  0  0  0  0  0  0  0  0
    5.1758   -3.9873    0.9470 H   0  0  0  0  0  0  0  0  0  0  0  0
    5.8974   -3.6043   -0.6220 H   0  0  0  0  0  0  0  0  0  0  0  0
    4.2592   -4.2767   -0.5236 H   0  0  0  0  0  0  0  0  0  0  0  0
    4.0513   -1.5072   -1.3014 C   0  0  0  0  0  0  0  0  0  0  0  0
    2.7990   -0.8674   -1.0129 O   0  0  0  0  0  0  0  0  0  0  0  0
    5.0517   -0.4572   -1.7820 C   0  0  0  0  0  0  0  0  0  0  0  0
    6.0363   -0.9004   -1.9032 H   0  0  0  0  0  0  0  0  0  0  0  0
    4.7233   -0.0652   -2.7415 H   0  0  0  0  0  0  0  0  0  0  0  0
    5.1020    0.3670   -1.0789 H   0  0  0  0  0  0  0  0  0  0  0  0
    3.7971   -2.5130   -2.4326 C   0  0  0  0  0  0  0  0  0  0  0  0
    3.0634   -3.2514   -2.1212 H   0  0  0  0  0  0  0  0  0  0  0  0
    3.3909   -1.9786   -3.2882 H   0  0  0  0  0  0  0  0  0  0  0  0
    4.7165   -3.0090   -2.7285 H   0  0  0  0  0  0  0  0  0  0  0  0
   -3.2930   -4.0074   -2.6777 H   0  0  0  0  0  0  0  0  0  0  0  0
   -5.0736    1.7123    0.7623 H   0  0  0  0  0  0  0  0  0  0  0  0
    0.2359   -1.6814    2.9603 C   0  0  0  0  0  0  0  0  0  0  0  0
   -1.0401   -2.0319    3.3564 C   0  0  0  0  0  0  0  0  0  0  0  0
    1.2483   -1.5276    3.9265 C   0  0  0  0  0  0  0  0  0  0  0  0
   -1.3272   -2.1413    4.7236 C   0  0  0  0  0  0  0  0  0  0  0  0
   -1.8245   -2.2112    2.6329 H   0  0  0  0  0  0  0  0  0  0  0  0
    0.9960   -1.6247    5.2772 C   0  0  0  0  0  0  0  0  0  0  0  0
    2.2512   -1.3294    3.5812 H   0  0  0  0  0  0  0  0  0  0  0  0
   -0.3046   -1.9183    5.6745 C   0  0  0  0  0  0  0  0  0  0  0  0
   -2.5123   -2.4502    5.4650 C   0  0  0  0  0  0  0  0  0  0  0  0
    1.7816   -1.4900    6.0064 H   0  0  0  0  0  0  0  0  0  0  0  0
   -0.8457   -2.0820    6.9176 N   0  0  0  0  0  0  0  0  0  0  0  0
   -2.1667   -2.4013    6.7869 C   0  0  0  0  0  0  0  0  0  0  0  0
   -3.8477   -2.7983    4.8966 C   0  0  0  0  0  0  0  0  0  0  0  0
   -0.3539   -1.9778    7.7882 H   0  0  0  0  0  0  0  0  0  0  0  0
   -2.7822   -2.5662    7.6502 H   0  0  0  0  0  0  0  0  0  0  0  0
   -3.9639   -4.3077    4.6098 C   0  0  0  0  0  0  0  0  0  0  0  0
   -4.0097   -2.2640    3.9585 H   0  0  0  0  0  0  0  0  0  0  0  0
   -4.6389   -2.5236    5.5958 H   0  0  0  0  0  0  0  0  0  0  0  0
   -2.9096   -4.7254    3.7133 N   0  0  0  0  0  0  0  0  0  0  0  0
   -5.3124   -4.5855    3.9466 C   0  0  0  0  0  0  0  0  0  0  0  0
   -3.9166   -4.8811    5.5452 H   0  0  0  0  0  0  0  0  0  0  0  0
   -3.0653   -5.7671    2.8797 C   0  0  0  0  0  0  0  0  0  0  0  0
   -2.0599   -4.1778    3.6796 H   0  0  0  0  0  0  0  0  0  0  0  0
   -5.6667   -4.0889    2.9036 O   0  0  0  0  0  0  0  0  0  0  0  0
   -6.0806   -5.3375    4.7204 O   0  0  0  0  0  0  0  0  0  0  0  0
   -4.0694   -6.4587    2.8592 O   0  0  0  0  0  0  0  0  0  0  0  0
   -1.9757   -5.9222    2.1211 O   0  0  0  0  0  0  0  0  0  0  0  0
   -7.3746   -5.6807    4.2210 C   0  0  0  0  0  0  0  0  0  0  0  0
   -1.8716   -6.9970    1.1451 C   0  0  0  0  0  0  0  0  0  0  0  0
   -7.9127   -6.1102    5.0614 H   0  0  0  0  0  0  0  0  0  0  0  0
   -7.2698   -6.4072    3.4141 H   0  0  0  0  0  0  0  0  0  0  0  0
   -7.8785   -4.7904    3.8408 H   0  0  0  0  0  0  0  0  0  0  0  0
   -2.9530   -6.8427    0.0764 C   0  0  0  0  0  0  0  0  0  0  0  0
   -0.4831   -6.7971    0.5364 C   0  0  0  0  0  0  0  0  0  0  0  0
   -1.9652   -8.3560    1.8382 C   0  0  0  0  0  0  0  0  0  0  0  0
   -2.8867   -5.8549   -0.3750 H   0  0  0  0  0  0  0  0  0  0  0  0
   -3.9394   -6.9587    0.5181 H   0  0  0  0  0  0  0  0  0  0  0  0
   -2.8185   -7.5976   -0.6923 H   0  0  0  0  0  0  0  0  0  0  0  0
   -0.4205   -5.8117    0.0830 H   0  0  0  0  0  0  0  0  0  0  0  0
   -0.3004   -7.5552   -0.2183 H   0  0  0  0  0  0  0  0  0  0  0  0
    0.2757   -6.8690    1.3103 H   0  0  0  0  0  0  0  0  0  0  0  0
   -2.9482   -8.4856    2.2835 H   0  0  0  0  0  0  0  0  0  0  0  0
   -1.2129   -8.4275    2.6205 H   0  0  0  0  0  0  0  0  0  0  0  0
   -1.7994   -9.1462    1.1121 H   0  0  0  0  0  0  0  0  0  0  0  0
  1  2  4  0  0  0  0
  2  3  4  0  0  0  0
  3  4  4  0  0  0  0
  4  5  4  0  0  0  0
  1  6  4  0  0  0  0
  5  6  4  0  0  0  0
  6  7  1  0  0  0  0
  5  8  1  0  0  0  0
  3  9  1  0  0  0  0
  2 10  1  0  0  0  0
 10 11  4  0  0  0  0
 11 12  4  0  0  0  0
 12 13  4  0  0  0  0
 13 14  4  0  0  0  0
 10 15  4  0  0  0  0
 14 15  4  0  0  0  0
 15 16  1  0  0  0  0
 13 17  1  0  0  0  0
 12 18  1  0  0  0  0
  1 19  1  0  0  0  0
 11 19  1  0  0  0  0
 19 20  1  0  0  0  0
 19 21  1  0  0  0  0
 21 22  1  0  0  0  0
 22 23  1  0  0  0  0
 23 24  1  0  0  0  0
 24 25  1  0  0  0  0
 24 26  1  0  0  0  0
 24 27  1  0  0  0  0
 23 28  1  0  0  0  0
 28 29  1  0  0  0  0
 28 30  1  0  0  0  0
 28 31  1  0  0  0  0
 23 32  1  0  0  0  0
 21 33  1  0  0  0  0
 32 33  1  0  0  0  0
 32 34  1  0  0  0  0
 34 35  1  0  0  0  0
 34 36  1  0  0  0  0
 34 37  1  0  0  0  0
 32 38  1  0  0  0  0
 38 39  1  0  0  0  0
 38 40  1  0  0  0  0
 38 41  1  0  0  0  0
 19 42  1  0  0  0  0
 42 43  1  0  0  0  0
 43 44  1  0  0  0  0
 44 45  1  0  0  0  0
 45 46  1  0  0  0  0
 45 47  1  0  0  0  0
 45 48  1  0  0  0  0
 44 49  1  0  0  0  0
 49 50  1  0  0  0  0
 49 51  1  0  0  0  0
 49 52  1  0  0  0  0
 44 53  1  0  0  0  0
 42 54  1  0  0  0  0
 53 54  1  0  0  0  0
 53 55  1  0  0  0  0
 55 56  1  0  0  0  0
 55 57  1  0  0  0  0
 55 58  1  0  0  0  0
 53 59  1  0  0  0  0
 59 60  1  0  0  0  0
 59 61  1  0  0  0  0
 59 62  1  0  0  0  0
 19 63  1  0  0  0  0
 63 64  1  0  0  0  0
 64 65  1  0  0  0  0
 65 66  1  0  0  0  0
 66 67  1  0  0  0  0
 66 68  1  0  0  0  0
 66 69  1  0  0  0  0
 65 70  1  0  0  0  0
 70 71  1  0  0  0  0
 70 72  1  0  0  0  0
 70 73  1  0  0  0  0
 65 74  1  0  0  0  0
 63 75  1  0  0  0  0
 74 75  1  0  0  0  0
 74 76  1  0  0  0  0
 76 77  1  0  0  0  0
 76 78  1  0  0  0  0
 76 79  1  0  0  0  0
 74 80  1  0  0  0  0
 80 81  1  0  0  0  0
 80 82  1  0  0  0  0
 80 83  1  0  0  0  0
  4 84  1  0  0  0  0
 14 85  1  0  0  0  0
 19 86  1  0  0  0  0
 20 86  1  0  0  0  0
 86 87  4  0  0  0  0
 86 88  4  0  0  0  0
 87 89  4  0  0  0  0
 87 90  1  0  0  0  0
 88 91  2  0  0  0  0
 88 92  1  0  0  0  0
 89 93  4  0  0  0  0
 91 93  4  0  0  0  0
 89 94  4  0  0  0  0
 91 95  1  0  0  0  0
 93 96  1  0  0  0  0
 94 97  2  0  0  0  0
 96 97  4  0  0  0  0
 94 98  1  0  0  0  0
 96 99  1  0  0  0  0
 97100  1  0  0  0  0
 98101  1  0  0  0  0
 98102  1  0  0  0  0
 98103  1  0  0  0  0
101104  1  0  0  0  0
101105  1  0  0  0  0
101106  1  0  0  0  0
104107  4  0  0  0  0
104108  1  0  0  0  0
105109  2  0  0  0  0
105110  1  0  0  0  0
107111  2  0  0  0  0
107112  1  0  0  0  0
110113  1  0  0  0  0
112114  1  0  0  0  0
113115  1  0  0  0  0
113116  1  0  0  0  0
113117  1  0  0  0  0
114118  1  0  0  0  0
114119  1  0  0  0  0
114120  1  0  0  0  0
118121  1  0  0  0  0
118122  1  0  0  0  0
118123  1  0  0  0  0
119124  1  0  0  0  0
119125  1  0  0  0  0
119126  1  0  0  0  0
120127  1  0  0  0  0
120128  1  0  0  0  0
120129  1  0  0  0  0
M  END
