
  xtb     10082107343D
 xtb: 6.4.0 (f63f532)
108115  0     0  0            999 V2000
   -0.9567   -2.0104   -0.3674 N   0  0  0  0  0  0  0  0  0  0  0  0
   -2.2111   -1.5370   -0.4834 C   0  0  0  0  0  0  0  0  0  0  0  0
   -3.1020   -2.0825   -1.4172 C   0  0  0  0  0  0  0  0  0  0  0  0
   -2.6914   -3.1103   -2.2371 C   0  0  0  0  0  0  0  0  0  0  0  0
   -1.3883   -3.5848   -2.1097 C   0  0  0  0  0  0  0  0  0  0  0  0
   -0.5708   -3.0021   -1.1638 C   0  0  0  0  0  0  0  0  0  0  0  0
    0.4471   -3.3389   -1.0272 H   0  0  0  0  0  0  0  0  0  0  0  0
   -1.0224   -4.3849   -2.7321 H   0  0  0  0  0  0  0  0  0  0  0  0
   -4.1050   -1.6994   -1.5091 H   0  0  0  0  0  0  0  0  0  0  0  0
   -2.5654   -0.4235    0.3877 C   0  0  0  0  0  0  0  0  0  0  0  0
   -1.5839    0.0611    1.1779 N   0  0  0  0  0  0  0  0  0  0  0  0
   -1.8551    1.0943    1.9731 C   0  0  0  0  0  0  0  0  0  0  0  0
   -3.0917    1.7010    2.0386 C   0  0  0  0  0  0  0  0  0  0  0  0
   -4.1173    1.2092    1.2346 C   0  0  0  0  0  0  0  0  0  0  0  0
   -3.8464    0.1431    0.4051 C   0  0  0  0  0  0  0  0  0  0  0  0
   -4.6278   -0.2517   -0.2227 H   0  0  0  0  0  0  0  0  0  0  0  0
   -3.2576    2.5280    2.7093 H   0  0  0  0  0  0  0  0  0  0  0  0
   -1.0302    1.4379    2.5794 H   0  0  0  0  0  0  0  0  0  0  0  0
    0.4215   -0.8165    0.9133 Ir  0  0  0  0  0  0  0  0  0  0  0  0
    0.8726   -2.2303    1.5405 H   0  0  0  0  0  0  0  0  0  0  0  0
    0.2774    0.6498   -0.5699 B   0  0  0  0  0  0  0  0  0  0  0  0
   -0.3611    0.3713   -1.7647 O   0  0  0  0  0  0  0  0  0  0  0  0
   -0.6067    1.5867   -2.4825 C   0  0  0  0  0  0  0  0  0  0  0  0
   -0.3733    1.3653   -3.9744 C   0  0  0  0  0  0  0  0  0  0  0  0
    0.5966    0.9119   -4.1493 H   0  0  0  0  0  0  0  0  0  0  0  0
   -0.4355    2.3122   -4.5049 H   0  0  0  0  0  0  0  0  0  0  0  0
   -1.1372    0.6949   -4.3613 H   0  0  0  0  0  0  0  0  0  0  0  0
   -2.0791    1.9576   -2.2522 C   0  0  0  0  0  0  0  0  0  0  0  0
   -2.3545    2.8401   -2.8221 H   0  0  0  0  0  0  0  0  0  0  0  0
   -2.7021    1.1225   -2.5674 H   0  0  0  0  0  0  0  0  0  0  0  0
   -2.2618    2.1345   -1.1940 H   0  0  0  0  0  0  0  0  0  0  0  0
    0.3794    2.5875   -1.7987 C   0  0  0  0  0  0  0  0  0  0  0  0
    0.5724    1.9944   -0.5072 O   0  0  0  0  0  0  0  0  0  0  0  0
    1.7502    2.6137   -2.4858 C   0  0  0  0  0  0  0  0  0  0  0  0
    2.1429    1.6010   -2.5416 H   0  0  0  0  0  0  0  0  0  0  0  0
    1.6876    3.0534   -3.4772 H   0  0  0  0  0  0  0  0  0  0  0  0
    2.4339    3.2019   -1.8788 H   0  0  0  0  0  0  0  0  0  0  0  0
   -0.1452    4.0138   -1.6469 C   0  0  0  0  0  0  0  0  0  0  0  0
   -1.0227    4.0476   -1.0080 H   0  0  0  0  0  0  0  0  0  0  0  0
    0.6270    4.6320   -1.1947 H   0  0  0  0  0  0  0  0  0  0  0  0
   -0.3929    4.4233   -2.6229 H   0  0  0  0  0  0  0  0  0  0  0  0
    1.5908    0.6803    1.8016 B   0  0  0  0  0  0  0  0  0  0  0  0
    2.8236    1.1493    1.4443 O   0  0  0  0  0  0  0  0  0  0  0  0
    3.1668    2.3320    2.1814 C   0  0  0  0  0  0  0  0  0  0  0  0
    4.5512    2.1397    2.8062 C   0  0  0  0  0  0  0  0  0  0  0  0
    4.5928    1.2239    3.3869 H   0  0  0  0  0  0  0  0  0  0  0  0
    5.2883    2.0639    2.0111 H   0  0  0  0  0  0  0  0  0  0  0  0
    4.8038    2.9875    3.4356 H   0  0  0  0  0  0  0  0  0  0  0  0
    3.2351    3.4807    1.1692 C   0  0  0  0  0  0  0  0  0  0  0  0
    3.4459    4.4266    1.6588 H   0  0  0  0  0  0  0  0  0  0  0  0
    4.0300    3.2661    0.4585 H   0  0  0  0  0  0  0  0  0  0  0  0
    2.3006    3.5380    0.6195 H   0  0  0  0  0  0  0  0  0  0  0  0
    1.9928    2.4708    3.2237 C   0  0  0  0  0  0  0  0  0  0  0  0
    1.0915    1.4168    2.8538 O   0  0  0  0  0  0  0  0  0  0  0  0
    1.2200    3.7909    3.1397 C   0  0  0  0  0  0  0  0  0  0  0  0
    0.7779    3.9115    2.1555 H   0  0  0  0  0  0  0  0  0  0  0  0
    0.4179    3.7728    3.8743 H   0  0  0  0  0  0  0  0  0  0  0  0
    1.8715    4.6320    3.3569 H   0  0  0  0  0  0  0  0  0  0  0  0
    2.4107    2.2453    4.6809 C   0  0  0  0  0  0  0  0  0  0  0  0
    2.9176    1.2939    4.8008 H   0  0  0  0  0  0  0  0  0  0  0  0
    3.0603    3.0461    5.0201 H   0  0  0  0  0  0  0  0  0  0  0  0
    1.5164    2.2319    5.3000 H   0  0  0  0  0  0  0  0  0  0  0  0
    2.2782   -1.3309    0.1741 B   0  0  0  0  0  0  0  0  0  0  0  0
    3.2451   -2.1327    0.7287 O   0  0  0  0  0  0  0  0  0  0  0  0
    4.4435   -2.0794   -0.0585 C   0  0  0  0  0  0  0  0  0  0  0  0
    5.3880   -1.1024    0.6471 C   0  0  0  0  0  0  0  0  0  0  0  0
    4.8944   -0.1397    0.7438 H   0  0  0  0  0  0  0  0  0  0  0  0
    5.5832   -1.4759    1.6492 H   0  0  0  0  0  0  0  0  0  0  0  0
    6.3262   -1.0010    0.1111 H   0  0  0  0  0  0  0  0  0  0  0  0
    5.0847   -3.4647   -0.1046 C   0  0  0  0  0  0  0  0  0  0  0  0
    5.4058   -3.7320    0.8983 H   0  0  0  0  0  0  0  0  0  0  0  0
    5.9495   -3.4518   -0.7619 H   0  0  0  0  0  0  0  0  0  0  0  0
    4.3807   -4.2168   -0.4457 H   0  0  0  0  0  0  0  0  0  0  0  0
    3.9247   -1.5372   -1.4356 C   0  0  0  0  0  0  0  0  0  0  0  0
    2.6712   -0.9312   -1.0854 O   0  0  0  0  0  0  0  0  0  0  0  0
    4.8206   -0.4894   -2.0933 C   0  0  0  0  0  0  0  0  0  0  0  0
    5.8149   -0.8936   -2.2610 H   0  0  0  0  0  0  0  0  0  0  0  0
    4.3906   -0.2050   -3.0508 H   0  0  0  0  0  0  0  0  0  0  0  0
    4.8833    0.3978   -1.4725 H   0  0  0  0  0  0  0  0  0  0  0  0
    3.6254   -2.6502   -2.4494 C   0  0  0  0  0  0  0  0  0  0  0  0
    2.9763   -3.3998   -2.0051 H   0  0  0  0  0  0  0  0  0  0  0  0
    3.1047   -2.2152   -3.2992 H   0  0  0  0  0  0  0  0  0  0  0  0
    4.5420   -3.1177   -2.7958 H   0  0  0  0  0  0  0  0  0  0  0  0
   -3.3657   -3.5344   -2.9657 H   0  0  0  0  0  0  0  0  0  0  0  0
   -5.1023    1.6497    1.2613 H   0  0  0  0  0  0  0  0  0  0  0  0
    0.2359   -1.6814    2.9603 C   0  0  0  0  0  0  0  0  0  0  0  0
   -1.0682   -2.0488    3.3025 C   0  0  0  0  0  0  0  0  0  0  0  0
    1.1522   -1.6510    4.0053 C   0  0  0  0  0  0  0  0  0  0  0  0
   -1.4701   -2.2792    4.6110 C   0  0  0  0  0  0  0  0  0  0  0  0
   -1.8030   -2.1801    2.5194 H   0  0  0  0  0  0  0  0  0  0  0  0
    3.0152   -1.3962    3.6968 Br  0  0  0  0  0  0  0  0  0  0  0  0
    0.7840   -1.8674    5.3242 C   0  0  0  0  0  0  0  0  0  0  0  0
   -0.5275   -2.1712    5.6278 C   0  0  0  0  0  0  0  0  0  0  0  0
   -2.8877   -2.6588    4.9349 C   0  0  0  0  0  0  0  0  0  0  0  0
    1.5320   -1.8224    6.1010 H   0  0  0  0  0  0  0  0  0  0  0  0
   -0.8086   -2.3578    6.6532 H   0  0  0  0  0  0  0  0  0  0  0  0
   -3.6119   -1.5717    5.7458 C   0  0  0  0  0  0  0  0  0  0  0  0
   -2.8828   -3.5845    5.5167 H   0  0  0  0  0  0  0  0  0  0  0  0
   -3.4416   -2.8438    4.0118 H   0  0  0  0  0  0  0  0  0  0  0  0
   -3.7329   -0.2880    4.9295 C   0  0  0  0  0  0  0  0  0  0  0  0
   -4.9889   -2.0658    6.1842 C   0  0  0  0  0  0  0  0  0  0  0  0
   -3.0186   -1.3562    6.6408 H   0  0  0  0  0  0  0  0  0  0  0  0
   -4.3266   -0.4615    4.0335 H   0  0  0  0  0  0  0  0  0  0  0  0
   -2.7496    0.0628    4.6230 H   0  0  0  0  0  0  0  0  0  0  0  0
   -4.2132    0.4932    5.5147 H   0  0  0  0  0  0  0  0  0  0  0  0
   -5.6052   -2.2942    5.3168 H   0  0  0  0  0  0  0  0  0  0  0  0
   -5.4946   -1.3047    6.7744 H   0  0  0  0  0  0  0  0  0  0  0  0
   -4.8998   -2.9656    6.7894 H   0  0  0  0  0  0  0  0  0  0  0  0
  1  2  4  0  0  0  0
  2  3  4  0  0  0  0
  3  4  4  0  0  0  0
  4  5  4  0  0  0  0
  1  6  4  0  0  0  0
  5  6  4  0  0  0  0
  6  7  1  0  0  0  0
  5  8  1  0  0  0  0
  3  9  1  0  0  0  0
  2 10  1  0  0  0  0
 10 11  4  0  0  0  0
 11 12  4  0  0  0  0
 12 13  4  0  0  0  0
 13 14  4  0  0  0  0
 10 15  4  0  0  0  0
 14 15  4  0  0  0  0
 15 16  1  0  0  0  0
 13 17  1  0  0  0  0
 12 18  1  0  0  0  0
  1 19  1  0  0  0  0
 11 19  1  0  0  0  0
 19 20  1  0  0  0  0
 19 21  1  0  0  0  0
 21 22  1  0  0  0  0
 22 23  1  0  0  0  0
 23 24  1  0  0  0  0
 24 25  1  0  0  0  0
 24 26  1  0  0  0  0
 24 27  1  0  0  0  0
 23 28  1  0  0  0  0
 28 29  1  0  0  0  0
 28 30  1  0  0  0  0
 28 31  1  0  0  0  0
 23 32  1  0  0  0  0
 21 33  1  0  0  0  0
 32 33  1  0  0  0  0
 32 34  1  0  0  0  0
 34 35  1  0  0  0  0
 34 36  1  0  0  0  0
 34 37  1  0  0  0  0
 32 38  1  0  0  0  0
 38 39  1  0  0  0  0
 38 40  1  0  0  0  0
 38 41  1  0  0  0  0
 19 42  1  0  0  0  0
 42 43  1  0  0  0  0
 43 44  1  0  0  0  0
 44 45  1  0  0  0  0
 45 46  1  0  0  0  0
 45 47  1  0  0  0  0
 45 48  1  0  0  0  0
 44 49  1  0  0  0  0
 49 50  1  0  0  0  0
 49 51  1  0  0  0  0
 49 52  1  0  0  0  0
 44 53  1  0  0  0  0
 42 54  1  0  0  0  0
 53 54  1  0  0  0  0
 53 55  1  0  0  0  0
 55 56  1  0  0  0  0
 55 57  1  0  0  0  0
 55 58  1  0  0  0  0
 53 59  1  0  0  0  0
 59 60  1  0  0  0  0
 59 61  1  0  0  0  0
 59 62  1  0  0  0  0
 19 63  1  0  0  0  0
 63 64  1  0  0  0  0
 64 65  1  0  0  0  0
 65 66  1  0  0  0  0
 66 67  1  0  0  0  0
 66 68  1  0  0  0  0
 66 69  1  0  0  0  0
 65 70  1  0  0  0  0
 70 71  1  0  0  0  0
 70 72  1  0  0  0  0
 70 73  1  0  0  0  0
 65 74  1  0  0  0  0
 63 75  1  0  0  0  0
 74 75  1  0  0  0  0
 74 76  1  0  0  0  0
 76 77  1  0  0  0  0
 76 78  1  0  0  0  0
 76 79  1  0  0  0  0
 74 80  1  0  0  0  0
 80 81  1  0  0  0  0
 80 82  1  0  0  0  0
 80 83  1  0  0  0  0
  4 84  1  0  0  0  0
 14 85  1  0  0  0  0
 19 86  1  0  0  0  0
 20 86  1  0  0  0  0
 86 87  4  0  0  0  0
 86 88  4  0  0  0  0
 87 89  4  0  0  0  0
 87 90  1  0  0  0  0
 88 91  1  0  0  0  0
 88 92  4  0  0  0  0
 89 93  4  0  0  0  0
 92 93  4  0  0  0  0
 89 94  1  0  0  0  0
 92 95  1  0  0  0  0
 93 96  1  0  0  0  0
 94 97  1  0  0  0  0
 94 98  1  0  0  0  0
 94 99  1  0  0  0  0
 97100  1  0  0  0  0
 97101  1  0  0  0  0
 97102  1  0  0  0  0
100103  1  0  0  0  0
100104  1  0  0  0  0
100105  1  0  0  0  0
101106  1  0  0  0  0
101107  1  0  0  0  0
101108  1  0  0  0  0
M  END
