
  xtb     01142214303D
 xtb: 6.4.1 (1a32961)
119128  0     0  0            999 V2000
   -0.8729   -2.0950   -0.3472 N   0  0  0  0  0  0  0  0  0  0  0  0
   -2.0396   -1.5520   -0.7303 C   0  0  0  0  0  0  0  0  0  0  0  0
   -2.8759   -2.2091   -1.6419 C   0  0  0  0  0  0  0  0  0  0  0  0
   -2.5073   -3.4353   -2.1497 C   0  0  0  0  0  0  0  0  0  0  0  0
   -1.2985   -3.9898   -1.7374 C   0  0  0  0  0  0  0  0  0  0  0  0
   -0.5263   -3.2786   -0.8430 C   0  0  0  0  0  0  0  0  0  0  0  0
    0.4207   -3.6713   -0.4995 H   0  0  0  0  0  0  0  0  0  0  0  0
   -0.9709   -4.9498   -2.1025 H   0  0  0  0  0  0  0  0  0  0  0  0
   -3.8119   -1.7688   -1.9443 H   0  0  0  0  0  0  0  0  0  0  0  0
   -2.3656   -0.2566   -0.1523 C   0  0  0  0  0  0  0  0  0  0  0  0
   -1.5672    0.1751    0.8484 N   0  0  0  0  0  0  0  0  0  0  0  0
   -1.8494    1.3443    1.4220 C   0  0  0  0  0  0  0  0  0  0  0  0
   -2.8857    2.1627    1.0215 C   0  0  0  0  0  0  0  0  0  0  0  0
   -3.6832    1.7545   -0.0454 C   0  0  0  0  0  0  0  0  0  0  0  0
   -3.4183    0.5327   -0.6285 C   0  0  0  0  0  0  0  0  0  0  0  0
   -4.0141    0.2022   -1.4640 H   0  0  0  0  0  0  0  0  0  0  0  0
   -3.0674    3.0983    1.5255 H   0  0  0  0  0  0  0  0  0  0  0  0
   -1.1901    1.6331    2.2257 H   0  0  0  0  0  0  0  0  0  0  0  0
    0.4215   -0.8165    0.9133 Ir  0  0  0  0  0  0  0  0  0  0  0  0
    0.8726   -2.2303    1.5405 H   0  0  0  0  0  0  0  0  0  0  0  0
    0.5449    0.4912   -0.7013 B   0  0  0  0  0  0  0  0  0  0  0  0
    0.1628    0.0335   -1.9431 O   0  0  0  0  0  0  0  0  0  0  0  0
    0.2660    1.0734   -2.9215 C   0  0  0  0  0  0  0  0  0  0  0  0
    0.9719    0.5147   -4.1567 C   0  0  0  0  0  0  0  0  0  0  0  0
    1.9147    0.0579   -3.8760 H   0  0  0  0  0  0  0  0  0  0  0  0
    1.1436    1.3015   -4.8862 H   0  0  0  0  0  0  0  0  0  0  0  0
    0.3445   -0.2517   -4.6053 H   0  0  0  0  0  0  0  0  0  0  0  0
   -1.1616    1.4852   -3.3050 C   0  0  0  0  0  0  0  0  0  0  0  0
   -1.1533    2.2510   -4.0748 H   0  0  0  0  0  0  0  0  0  0  0  0
   -1.6843    0.6089   -3.6825 H   0  0  0  0  0  0  0  0  0  0  0  0
   -1.6986    1.8476   -2.4316 H   0  0  0  0  0  0  0  0  0  0  0  0
    1.0565    2.1951   -2.1601 C   0  0  0  0  0  0  0  0  0  0  0  0
    0.9193    1.8107   -0.7830 O   0  0  0  0  0  0  0  0  0  0  0  0
    2.5577    2.1790   -2.4700 C   0  0  0  0  0  0  0  0  0  0  0  0
    2.9587    1.2029   -2.2123 H   0  0  0  0  0  0  0  0  0  0  0  0
    2.7505    2.4125   -3.5128 H   0  0  0  0  0  0  0  0  0  0  0  0
    3.0514    2.9196   -1.8455 H   0  0  0  0  0  0  0  0  0  0  0  0
    0.5147    3.6105   -2.3563 C   0  0  0  0  0  0  0  0  0  0  0  0
   -0.5038    3.6984   -1.9914 H   0  0  0  0  0  0  0  0  0  0  0  0
    1.1350    4.3071   -1.7977 H   0  0  0  0  0  0  0  0  0  0  0  0
    0.5483    3.8784   -3.4089 H   0  0  0  0  0  0  0  0  0  0  0  0
    1.5286    0.6393    1.9065 B   0  0  0  0  0  0  0  0  0  0  0  0
    2.8931    0.7905    1.9528 O   0  0  0  0  0  0  0  0  0  0  0  0
    3.2338    2.0543    2.5399 C   0  0  0  0  0  0  0  0  0  0  0  0
    4.4368    1.8831    3.4655 C   0  0  0  0  0  0  0  0  0  0  0  0
    4.2584    1.0916    4.1857 H   0  0  0  0  0  0  0  0  0  0  0  0
    5.3067    1.6138    2.8722 H   0  0  0  0  0  0  0  0  0  0  0  0
    4.6429    2.8137    3.9871 H   0  0  0  0  0  0  0  0  0  0  0  0
    3.6035    2.9827    1.3766 C   0  0  0  0  0  0  0  0  0  0  0  0
    3.8624    3.9781    1.7245 H   0  0  0  0  0  0  0  0  0  0  0  0
    4.4562    2.5568    0.8528 H   0  0  0  0  0  0  0  0  0  0  0  0
    2.7706    3.0249    0.6793 H   0  0  0  0  0  0  0  0  0  0  0  0
    1.9054    2.4745    3.2587 C   0  0  0  0  0  0  0  0  0  0  0  0
    0.9233    1.6485    2.6200 O   0  0  0  0  0  0  0  0  0  0  0  0
    1.5176    3.9426    3.0816 C   0  0  0  0  0  0  0  0  0  0  0  0
    1.3393    4.1683    2.0355 H   0  0  0  0  0  0  0  0  0  0  0  0
    0.6012    4.1369    3.6334 H   0  0  0  0  0  0  0  0  0  0  0  0
    2.3020    4.5872    3.4684 H   0  0  0  0  0  0  0  0  0  0  0  0
    1.8867    2.1252    4.7522 C   0  0  0  0  0  0  0  0  0  0  0  0
    2.1166    1.0727    4.8948 H   0  0  0  0  0  0  0  0  0  0  0  0
    2.5915    2.7375    5.3063 H   0  0  0  0  0  0  0  0  0  0  0  0
    0.8854    2.3021    5.1386 H   0  0  0  0  0  0  0  0  0  0  0  0
    2.2782   -1.3309    0.1741 B   0  0  0  0  0  0  0  0  0  0  0  0
    3.0568   -2.3051    0.7723 O   0  0  0  0  0  0  0  0  0  0  0  0
    4.3693   -2.3268    0.1970 C   0  0  0  0  0  0  0  0  0  0  0  0
    5.2875   -1.5606    1.1566 C   0  0  0  0  0  0  0  0  0  0  0  0
    4.8718   -0.5714    1.3293 H   0  0  0  0  0  0  0  0  0  0  0  0
    5.3120   -2.0878    2.1072 H   0  0  0  0  0  0  0  0  0  0  0  0
    6.2990   -1.4905    0.7690 H   0  0  0  0  0  0  0  0  0  0  0  0
    4.8508   -3.7725    0.0820 C   0  0  0  0  0  0  0  0  0  0  0  0
    4.9406   -4.1892    1.0817 H   0  0  0  0  0  0  0  0  0  0  0  0
    5.8222   -3.8064   -0.4031 H   0  0  0  0  0  0  0  0  0  0  0  0
    4.1458   -4.3817   -0.4733 H   0  0  0  0  0  0  0  0  0  0  0  0
    4.1514   -1.5813   -1.1636 C   0  0  0  0  0  0  0  0  0  0  0  0
    2.9337   -0.8483   -0.9336 O   0  0  0  0  0  0  0  0  0  0  0  0
    5.2679   -0.6114   -1.5442 C   0  0  0  0  0  0  0  0  0  0  0  0
    6.2178   -1.1364   -1.5923 H   0  0  0  0  0  0  0  0  0  0  0  0
    5.0573   -0.1826   -2.5206 H   0  0  0  0  0  0  0  0  0  0  0  0
    5.3305    0.1961   -0.8228 H   0  0  0  0  0  0  0  0  0  0  0  0
    3.8880   -2.5380   -2.3335 C   0  0  0  0  0  0  0  0  0  0  0  0
    3.0714   -3.2111   -2.0869 H   0  0  0  0  0  0  0  0  0  0  0  0
    3.5898   -1.9556   -3.2019 H   0  0  0  0  0  0  0  0  0  0  0  0
    4.7790   -3.1081   -2.5783 H   0  0  0  0  0  0  0  0  0  0  0  0
   -3.1444   -3.9559   -2.8491 H   0  0  0  0  0  0  0  0  0  0  0  0
   -4.4883    2.3758   -0.4080 H   0  0  0  0  0  0  0  0  0  0  0  0
    0.2359   -1.6814    2.9603 C   0  0  0  0  0  0  0  0  0  0  0  0
   -0.9896   -1.7359    3.5776 C   0  0  0  0  0  0  0  0  0  0  0  0
    1.2070   -1.6539    4.0179 C   0  0  0  0  0  0  0  0  0  0  0  0
   -0.8442   -1.7049    4.9673 O   0  0  0  0  0  0  0  0  0  0  0  0
   -2.4770   -1.8149    3.1443 B   0  0  0  0  0  0  0  0  0  0  0  0
    2.6004   -1.6372    4.0573 C   0  0  0  0  0  0  0  0  0  0  0  0
    0.4785   -1.6582    5.2228 C   0  0  0  0  0  0  0  0  0  0  0  0
   -3.0024   -2.3513    1.9961 O   0  0  0  0  0  0  0  0  0  0  0  0
   -3.4554   -1.4182    4.0158 O   0  0  0  0  0  0  0  0  0  0  0  0
    3.2171   -1.6080    5.2901 C   0  0  0  0  0  0  0  0  0  0  0  0
    3.1487   -1.6360    3.1310 H   0  0  0  0  0  0  0  0  0  0  0  0
    1.0978   -1.6272    6.4648 C   0  0  0  0  0  0  0  0  0  0  0  0
   -4.4136   -2.5379    2.1974 C   0  0  0  0  0  0  0  0  0  0  0  0
   -4.7327   -1.5719    3.3904 C   0  0  0  0  0  0  0  0  0  0  0  0
    2.4780   -1.5983    6.4771 C   0  0  0  0  0  0  0  0  0  0  0  0
    4.2955   -1.5903    5.3507 H   0  0  0  0  0  0  0  0  0  0  0  0
    0.5170   -1.6245    7.3738 H   0  0  0  0  0  0  0  0  0  0  0  0
   -5.1818   -2.2400    0.9142 C   0  0  0  0  0  0  0  0  0  0  0  0
   -4.6123   -4.0143    2.5654 C   0  0  0  0  0  0  0  0  0  0  0  0
   -5.1820   -0.1795    2.9296 C   0  0  0  0  0  0  0  0  0  0  0  0
   -5.7380   -2.1074    4.4081 C   0  0  0  0  0  0  0  0  0  0  0  0
    2.9975   -1.5690    7.4233 H   0  0  0  0  0  0  0  0  0  0  0  0
   -4.9002   -2.9686    0.1587 H   0  0  0  0  0  0  0  0  0  0  0  0
   -4.9496   -1.2490    0.5393 H   0  0  0  0  0  0  0  0  0  0  0  0
   -6.2490   -2.3175    1.1024 H   0  0  0  0  0  0  0  0  0  0  0  0
   -4.2070   -4.6274    1.7640 H   0  0  0  0  0  0  0  0  0  0  0  0
   -5.6652   -4.2451    2.6931 H   0  0  0  0  0  0  0  0  0  0  0  0
   -4.0682   -4.2498    3.4771 H   0  0  0  0  0  0  0  0  0  0  0  0
   -6.1727   -0.2159    2.4875 H   0  0  0  0  0  0  0  0  0  0  0  0
   -4.4721    0.2281    2.2144 H   0  0  0  0  0  0  0  0  0  0  0  0
   -5.2016    0.4801    3.7940 H   0  0  0  0  0  0  0  0  0  0  0  0
   -5.8942   -1.3532    5.1753 H   0  0  0  0  0  0  0  0  0  0  0  0
   -5.3677   -3.0055    4.8912 H   0  0  0  0  0  0  0  0  0  0  0  0
   -6.6855   -2.3174    3.9202 H   0  0  0  0  0  0  0  0  0  0  0  0
  1  2  4  0  0  0  0
  2  3  4  0  0  0  0
  3  4  4  0  0  0  0
  4  5  4  0  0  0  0
  1  6  4  0  0  0  0
  5  6  4  0  0  0  0
  6  7  1  0  0  0  0
  5  8  1  0  0  0  0
  3  9  1  0  0  0  0
  2 10  1  0  0  0  0
 10 11  4  0  0  0  0
 11 12  4  0  0  0  0
 12 13  4  0  0  0  0
 13 14  4  0  0  0  0
 10 15  4  0  0  0  0
 14 15  4  0  0  0  0
 15 16  1  0  0  0  0
 13 17  1  0  0  0  0
 12 18  1  0  0  0  0
  1 19  1  0  0  0  0
 11 19  1  0  0  0  0
 19 20  1  0  0  0  0
 19 21  1  0  0  0  0
 21 22  1  0  0  0  0
 22 23  1  0  0  0  0
 23 24  1  0  0  0  0
 24 25  1  0  0  0  0
 24 26  1  0  0  0  0
 24 27  1  0  0  0  0
 23 28  1  0  0  0  0
 28 29  1  0  0  0  0
 28 30  1  0  0  0  0
 28 31  1  0  0  0  0
 23 32  1  0  0  0  0
 21 33  1  0  0  0  0
 32 33  1  0  0  0  0
 32 34  1  0  0  0  0
 34 35  1  0  0  0  0
 34 36  1  0  0  0  0
 34 37  1  0  0  0  0
 32 38  1  0  0  0  0
 38 39  1  0  0  0  0
 38 40  1  0  0  0  0
 38 41  1  0  0  0  0
 19 42  1  0  0  0  0
 42 43  1  0  0  0  0
 43 44  1  0  0  0  0
 44 45  1  0  0  0  0
 45 46  1  0  0  0  0
 45 47  1  0  0  0  0
 45 48  1  0  0  0  0
 44 49  1  0  0  0  0
 49 50  1  0  0  0  0
 49 51  1  0  0  0  0
 49 52  1  0  0  0  0
 44 53  1  0  0  0  0
 42 54  1  0  0  0  0
 53 54  1  0  0  0  0
 53 55  1  0  0  0  0
 55 56  1  0  0  0  0
 55 57  1  0  0  0  0
 55 58  1  0  0  0  0
 53 59  1  0  0  0  0
 59 60  1  0  0  0  0
 59 61  1  0  0  0  0
 59 62  1  0  0  0  0
 19 63  1  0  0  0  0
 63 64  1  0  0  0  0
 64 65  1  0  0  0  0
 65 66  1  0  0  0  0
 66 67  1  0  0  0  0
 66 68  1  0  0  0  0
 66 69  1  0  0  0  0
 65 70  1  0  0  0  0
 70 71  1  0  0  0  0
 70 72  1  0  0  0  0
 70 73  1  0  0  0  0
 65 74  1  0  0  0  0
 63 75  1  0  0  0  0
 74 75  1  0  0  0  0
 74 76  1  0  0  0  0
 76 77  1  0  0  0  0
 76 78  1  0  0  0  0
 76 79  1  0  0  0  0
 74 80  1  0  0  0  0
 80 81  1  0  0  0  0
 80 82  1  0  0  0  0
 80 83  1  0  0  0  0
  4 84  1  0  0  0  0
 14 85  1  0  0  0  0
 19 86  1  0  0  0  0
 20 86  1  0  0  0  0
 86 87  2  0  0  0  0
 86 88  1  0  0  0  0
 87 89  1  0  0  0  0
 87 90  1  0  0  0  0
 88 91  4  0  0  0  0
 88 92  4  0  0  0  0
 89 92  1  0  0  0  0
 90 93  1  0  0  0  0
 90 94  1  0  0  0  0
 91 95  4  0  0  0  0
 91 96  1  0  0  0  0
 92 97  4  0  0  0  0
 93 98  1  0  0  0  0
 94 99  1  0  0  0  0
 98 99  1  0  0  0  0
 95100  4  0  0  0  0
 97100  4  0  0  0  0
 95101  1  0  0  0  0
 97102  1  0  0  0  0
 98103  1  0  0  0  0
 98104  1  0  0  0  0
 99105  1  0  0  0  0
 99106  1  0  0  0  0
100107  1  0  0  0  0
103108  1  0  0  0  0
103109  1  0  0  0  0
103110  1  0  0  0  0
104111  1  0  0  0  0
104112  1  0  0  0  0
104113  1  0  0  0  0
105114  1  0  0  0  0
105115  1  0  0  0  0
105116  1  0  0  0  0
106117  1  0  0  0  0
106118  1  0  0  0  0
106119  1  0  0  0  0
M  END
