
  xtb     01142213033D
 xtb: 6.4.1 (1a32961)
101109  0     0  0            999 V2000
   -0.9483   -2.0024   -0.3708 N   0  0  0  0  0  0  0  0  0  0  0  0
   -2.1842   -1.4954   -0.5189 C   0  0  0  0  0  0  0  0  0  0  0  0
   -3.0448   -1.9727   -1.5139 C   0  0  0  0  0  0  0  0  0  0  0  0
   -2.6313   -2.9907   -2.3463 C   0  0  0  0  0  0  0  0  0  0  0  0
   -1.3564   -3.5191   -2.1689 C   0  0  0  0  0  0  0  0  0  0  0  0
   -0.5601   -2.9865   -1.1755 C   0  0  0  0  0  0  0  0  0  0  0  0
    0.4402   -3.3590   -1.0054 H   0  0  0  0  0  0  0  0  0  0  0  0
   -0.9925   -4.3189   -2.7929 H   0  0  0  0  0  0  0  0  0  0  0  0
   -4.0235   -1.5418   -1.6472 H   0  0  0  0  0  0  0  0  0  0  0  0
   -2.5601   -0.4255    0.4003 C   0  0  0  0  0  0  0  0  0  0  0  0
   -1.5839    0.0654    1.1891 N   0  0  0  0  0  0  0  0  0  0  0  0
   -1.8831    1.0337    2.0502 C   0  0  0  0  0  0  0  0  0  0  0  0
   -3.1507    1.5639    2.1910 C   0  0  0  0  0  0  0  0  0  0  0  0
   -4.1714    1.0633    1.3895 C   0  0  0  0  0  0  0  0  0  0  0  0
   -3.8680    0.0649    0.4873 C   0  0  0  0  0  0  0  0  0  0  0  0
   -4.6473   -0.3438   -0.1345 H   0  0  0  0  0  0  0  0  0  0  0  0
   -3.3375    2.3403    2.9150 H   0  0  0  0  0  0  0  0  0  0  0  0
   -1.0567    1.3945    2.6435 H   0  0  0  0  0  0  0  0  0  0  0  0
    0.4215   -0.8165    0.9133 Ir  0  0  0  0  0  0  0  0  0  0  0  0
    0.8726   -2.2303    1.5405 H   0  0  0  0  0  0  0  0  0  0  0  0
    0.4366    0.5642   -0.6463 B   0  0  0  0  0  0  0  0  0  0  0  0
   -0.1637    0.2454   -1.8496 O   0  0  0  0  0  0  0  0  0  0  0  0
   -0.2164    1.4016   -2.6937 C   0  0  0  0  0  0  0  0  0  0  0  0
    0.1063    0.9994   -4.1304 C   0  0  0  0  0  0  0  0  0  0  0  0
    1.0397    0.4484   -4.1734 H   0  0  0  0  0  0  0  0  0  0  0  0
    0.1717    1.8821   -4.7611 H   0  0  0  0  0  0  0  0  0  0  0  0
   -0.6859    0.3562   -4.5061 H   0  0  0  0  0  0  0  0  0  0  0  0
   -1.6539    1.9368   -2.6287 C   0  0  0  0  0  0  0  0  0  0  0  0
   -1.7815    2.7989   -3.2765 H   0  0  0  0  0  0  0  0  0  0  0  0
   -2.3328    1.1488   -2.9488 H   0  0  0  0  0  0  0  0  0  0  0  0
   -1.9065    2.2052   -1.6049 H   0  0  0  0  0  0  0  0  0  0  0  0
    0.8222    2.3613   -2.0241 C   0  0  0  0  0  0  0  0  0  0  0  0
    0.8875    1.8614   -0.6798 O   0  0  0  0  0  0  0  0  0  0  0  0
    2.2283    2.2097   -2.6163 C   0  0  0  0  0  0  0  0  0  0  0  0
    2.5369    1.1704   -2.5338 H   0  0  0  0  0  0  0  0  0  0  0  0
    2.2623    2.5404   -3.6502 H   0  0  0  0  0  0  0  0  0  0  0  0
    2.9204    2.8092   -2.0298 H   0  0  0  0  0  0  0  0  0  0  0  0
    0.4269    3.8366   -2.0141 C   0  0  0  0  0  0  0  0  0  0  0  0
   -0.4806    3.9993   -1.4410 H   0  0  0  0  0  0  0  0  0  0  0  0
    1.2249    4.4153   -1.5553 H   0  0  0  0  0  0  0  0  0  0  0  0
    0.2808    4.1884   -3.0321 H   0  0  0  0  0  0  0  0  0  0  0  0
    1.5944    0.6323    1.8588 B   0  0  0  0  0  0  0  0  0  0  0  0
    2.9615    0.7377    1.8843 O   0  0  0  0  0  0  0  0  0  0  0  0
    3.3481    2.0162    2.4134 C   0  0  0  0  0  0  0  0  0  0  0  0
    4.5818    1.8610    3.3006 C   0  0  0  0  0  0  0  0  0  0  0  0
    4.4271    1.1062    4.0646 H   0  0  0  0  0  0  0  0  0  0  0  0
    5.4255    1.5533    2.6884 H   0  0  0  0  0  0  0  0  0  0  0  0
    4.8210    2.8095    3.7734 H   0  0  0  0  0  0  0  0  0  0  0  0
    3.6898    2.8960    1.2053 C   0  0  0  0  0  0  0  0  0  0  0  0
    3.9782    3.8976    1.5096 H   0  0  0  0  0  0  0  0  0  0  0  0
    4.5160    2.4384    0.6659 H   0  0  0  0  0  0  0  0  0  0  0  0
    2.8319    2.9285    0.5385 H   0  0  0  0  0  0  0  0  0  0  0  0
    2.0528    2.4862    3.1599 C   0  0  0  0  0  0  0  0  0  0  0  0
    1.0315    1.6691    2.5670 O   0  0  0  0  0  0  0  0  0  0  0  0
    1.6943    3.9575    2.9592 C   0  0  0  0  0  0  0  0  0  0  0  0
    1.4817    4.1591    1.9146 H   0  0  0  0  0  0  0  0  0  0  0  0
    0.8047    4.1897    3.5396 H   0  0  0  0  0  0  0  0  0  0  0  0
    2.5087    4.5912    3.2989 H   0  0  0  0  0  0  0  0  0  0  0  0
    2.0730    2.1725    4.6606 C   0  0  0  0  0  0  0  0  0  0  0  0
    2.2970    1.1225    4.8239 H   0  0  0  0  0  0  0  0  0  0  0  0
    2.8043    2.7848    5.1787 H   0  0  0  0  0  0  0  0  0  0  0  0
    1.0881    2.3741    5.0762 H   0  0  0  0  0  0  0  0  0  0  0  0
    2.2782   -1.3309    0.1741 B   0  0  0  0  0  0  0  0  0  0  0  0
    3.0863   -2.2953    0.7395 O   0  0  0  0  0  0  0  0  0  0  0  0
    4.3763   -2.2997    0.1130 C   0  0  0  0  0  0  0  0  0  0  0  0
    5.3281   -1.5708    1.0673 C   0  0  0  0  0  0  0  0  0  0  0  0
    4.9240   -0.5864    1.2843 H   0  0  0  0  0  0  0  0  0  0  0  0
    5.3730   -2.1268    2.0005 H   0  0  0  0  0  0  0  0  0  0  0  0
    6.3284   -1.4945    0.6532 H   0  0  0  0  0  0  0  0  0  0  0  0
    4.8478   -3.7427   -0.0676 C   0  0  0  0  0  0  0  0  0  0  0  0
    4.9751   -4.1932    0.9133 H   0  0  0  0  0  0  0  0  0  0  0  0
    5.7997   -3.7626   -0.5903 H   0  0  0  0  0  0  0  0  0  0  0  0
    4.1203   -4.3322   -0.6156 H   0  0  0  0  0  0  0  0  0  0  0  0
    4.1159   -1.5123   -1.2197 C   0  0  0  0  0  0  0  0  0  0  0  0
    2.8783   -0.8304   -0.9556 O   0  0  0  0  0  0  0  0  0  0  0  0
    5.1883   -0.4840   -1.5744 C   0  0  0  0  0  0  0  0  0  0  0  0
    6.1559   -0.9676   -1.6747 H   0  0  0  0  0  0  0  0  0  0  0  0
    4.9321   -0.0121   -2.5195 H   0  0  0  0  0  0  0  0  0  0  0  0
    5.2389    0.2868   -0.8133 H   0  0  0  0  0  0  0  0  0  0  0  0
    3.8779   -2.4273   -2.4286 C   0  0  0  0  0  0  0  0  0  0  0  0
    3.0867   -3.1395   -2.2115 H   0  0  0  0  0  0  0  0  0  0  0  0
    3.5576   -1.8166   -3.2693 H   0  0  0  0  0  0  0  0  0  0  0  0
    4.7856   -2.9565   -2.7019 H   0  0  0  0  0  0  0  0  0  0  0  0
   -3.2829   -3.3660   -3.1207 H   0  0  0  0  0  0  0  0  0  0  0  0
   -5.1789    1.4415    1.4740 H   0  0  0  0  0  0  0  0  0  0  0  0
    0.2359   -1.6814    2.9603 C   0  0  0  0  0  0  0  0  0  0  0  0
   -1.0365   -2.0172    3.4059 C   0  0  0  0  0  0  0  0  0  0  0  0
    1.1828   -1.5623    3.9744 C   0  0  0  0  0  0  0  0  0  0  0  0
   -1.3893   -2.1382    4.7651 C   0  0  0  0  0  0  0  0  0  0  0  0
   -2.1702   -2.2624    2.6827 O   0  0  0  0  0  0  0  0  0  0  0  0
    0.8373   -1.6924    5.3154 C   0  0  0  0  0  0  0  0  0  0  0  0
    2.2070   -1.3588    3.7031 H   0  0  0  0  0  0  0  0  0  0  0  0
   -2.7331   -2.4373    4.8340 N   0  0  0  0  0  0  0  0  0  0  0  0
   -0.4389   -1.9695    5.7631 C   0  0  0  0  0  0  0  0  0  0  0  0
   -3.1312   -2.4990    3.6078 C   0  0  0  0  0  0  0  0  0  0  0  0
    2.2177   -1.4763    6.6171 Br  0  0  0  0  0  0  0  0  0  0  0  0
   -0.6883   -2.0591    6.8067 H   0  0  0  0  0  0  0  0  0  0  0  0
   -4.5054   -2.7992    3.1500 C   0  0  0  0  0  0  0  0  0  0  0  0
   -5.1747   -2.7758    4.0035 H   0  0  0  0  0  0  0  0  0  0  0  0
   -4.5351   -3.7867    2.6918 H   0  0  0  0  0  0  0  0  0  0  0  0
   -4.8114   -2.0664    2.4059 H   0  0  0  0  0  0  0  0  0  0  0  0
  1  2  4  0  0  0  0
  2  3  4  0  0  0  0
  3  4  4  0  0  0  0
  4  5  4  0  0  0  0
  1  6  4  0  0  0  0
  5  6  4  0  0  0  0
  6  7  1  0  0  0  0
  5  8  1  0  0  0  0
  3  9  1  0  0  0  0
  2 10  1  0  0  0  0
 10 11  4  0  0  0  0
 11 12  4  0  0  0  0
 12 13  4  0  0  0  0
 13 14  4  0  0  0  0
 10 15  4  0  0  0  0
 14 15  4  0  0  0  0
 15 16  1  0  0  0  0
 13 17  1  0  0  0  0
 12 18  1  0  0  0  0
  1 19  1  0  0  0  0
 11 19  1  0  0  0  0
 19 20  1  0  0  0  0
 19 21  1  0  0  0  0
 21 22  1  0  0  0  0
 22 23  1  0  0  0  0
 23 24  1  0  0  0  0
 24 25  1  0  0  0  0
 24 26  1  0  0  0  0
 24 27  1  0  0  0  0
 23 28  1  0  0  0  0
 28 29  1  0  0  0  0
 28 30  1  0  0  0  0
 28 31  1  0  0  0  0
 23 32  1  0  0  0  0
 21 33  1  0  0  0  0
 32 33  1  0  0  0  0
 32 34  1  0  0  0  0
 34 35  1  0  0  0  0
 34 36  1  0  0  0  0
 34 37  1  0  0  0  0
 32 38  1  0  0  0  0
 38 39  1  0  0  0  0
 38 40  1  0  0  0  0
 38 41  1  0  0  0  0
 19 42  1  0  0  0  0
 42 43  1  0  0  0  0
 43 44  1  0  0  0  0
 44 45  1  0  0  0  0
 45 46  1  0  0  0  0
 45 47  1  0  0  0  0
 45 48  1  0  0  0  0
 44 49  1  0  0  0  0
 49 50  1  0  0  0  0
 49 51  1  0  0  0  0
 49 52  1  0  0  0  0
 44 53  1  0  0  0  0
 42 54  1  0  0  0  0
 53 54  1  0  0  0  0
 53 55  1  0  0  0  0
 55 56  1  0  0  0  0
 55 57  1  0  0  0  0
 55 58  1  0  0  0  0
 53 59  1  0  0  0  0
 59 60  1  0  0  0  0
 59 61  1  0  0  0  0
 59 62  1  0  0  0  0
 19 63  1  0  0  0  0
 63 64  1  0  0  0  0
 64 65  1  0  0  0  0
 65 66  1  0  0  0  0
 66 67  1  0  0  0  0
 66 68  1  0  0  0  0
 66 69  1  0  0  0  0
 65 70  1  0  0  0  0
 70 71  1  0  0  0  0
 70 72  1  0  0  0  0
 70 73  1  0  0  0  0
 65 74  1  0  0  0  0
 63 75  1  0  0  0  0
 74 75  1  0  0  0  0
 74 76  1  0  0  0  0
 76 77  1  0  0  0  0
 76 78  1  0  0  0  0
 76 79  1  0  0  0  0
 74 80  1  0  0  0  0
 80 81  1  0  0  0  0
 80 82  1  0  0  0  0
 80 83  1  0  0  0  0
  4 84  1  0  0  0  0
 14 85  1  0  0  0  0
 19 86  1  0  0  0  0
 20 86  1  0  0  0  0
 86 87  4  0  0  0  0
 86 88  4  0  0  0  0
 87 89  4  0  0  0  0
 87 90  1  0  0  0  0
 88 91  4  0  0  0  0
 88 92  1  0  0  0  0
 89 93  1  0  0  0  0
 89 94  4  0  0  0  0
 91 94  4  0  0  0  0
 90 95  1  0  0  0  0
 93 95  2  0  0  0  0
 91 96  1  0  0  0  0
 94 97  1  0  0  0  0
 95 98  1  0  0  0  0
 98 99  1  0  0  0  0
 98100  1  0  0  0  0
 98101  1  0  0  0  0
M  END
