   17

C          0.91391        1.44882       -0.00074
C         -0.27191        0.71111       -0.00027
C         -0.30277       -0.68014       -0.00021
N         -1.59588       -1.13902        0.00024
C         -2.35744       -0.06467        0.00088
N         -1.59383        1.07733        0.00051
C         -3.83899       -0.02716        0.00188
C          0.90497       -1.39618       -0.00070
C          2.10955       -0.68103       -0.00121
C          2.10059        0.71188       -0.00119
F          3.26867        1.36886       -0.00169
H          0.93114        2.53143       -0.00059
H         -1.94733        2.02303        0.00087
H         -4.24941       -1.04170        0.00259
H         -4.21331        0.49033       -0.88682
H         -4.21218        0.49108        0.89063
H          0.89409       -2.48044       -0.00050
