
  xtb     01142215273D
 xtb: 6.4.1 (1a32961)
 14 14  0     0  0            999 V2000
   -0.0191    2.1126   -0.0103 C   0  0  0  0  0  0  0  0  0  0  0  0
   -1.2150    1.4156   -0.0028 C   0  0  0  0  0  0  0  0  0  0  0  0
   -1.2027    0.0183    0.0074 C   0  0  0  0  0  0  0  0  0  0  0  0
   -2.4237   -0.6982    0.0160 C   0  0  0  0  0  0  0  0  0  0  0  0
   -3.4137   -1.2767    0.0237 N   0  0  0  0  0  0  0  0  0  0  0  0
    0.0032   -0.6786    0.0101 C   0  0  0  0  0  0  0  0  0  0  0  0
    1.1978    0.0375    0.0025 C   0  0  0  0  0  0  0  0  0  0  0  0
    2.4296   -0.6602    0.0053 C   0  0  0  0  0  0  0  0  0  0  0  0
    3.4272   -1.2258    0.0065 N   0  0  0  0  0  0  0  0  0  0  0  0
    1.1877    1.4348   -0.0075 C   0  0  0  0  0  0  0  0  0  0  0  0
   -0.0277    3.1911   -0.0187 H   0  0  0  0  0  0  0  0  0  0  0  0
   -2.1585    1.9395   -0.0052 H   0  0  0  0  0  0  0  0  0  0  0  0
    0.0120   -1.7582    0.0185 H   0  0  0  0  0  0  0  0  0  0  0  0
    2.1228    1.9737   -0.0134 H   0  0  0  0  0  0  0  0  0  0  0  0
  1  2  4  0  0  0  0
  2  3  4  0  0  0  0
  3  4  1  0  0  0  0
  4  5  3  0  0  0  0
  3  6  4  0  0  0  0
  6  7  4  0  0  0  0
  7  8  1  0  0  0  0
  8  9  3  0  0  0  0
  1 10  4  0  0  0  0
  7 10  4  0  0  0  0
  1 11  1  0  0  0  0
  2 12  1  0  0  0  0
  6 13  1  0  0  0  0
 10 14  1  0  0  0  0
M  END
