
  xtb     01142215143D
 xtb: 6.4.1 (1a32961)
111118  0     0  0            999 V2000
   -0.8878   -2.0497   -0.4166 N   0  0  0  0  0  0  0  0  0  0  0  0
   -2.1443   -1.5967   -0.5703 C   0  0  0  0  0  0  0  0  0  0  0  0
   -2.9641   -2.0803   -1.5966 C   0  0  0  0  0  0  0  0  0  0  0  0
   -2.4855   -3.0434   -2.4589 C   0  0  0  0  0  0  0  0  0  0  0  0
   -1.1876   -3.5123   -2.2797 C   0  0  0  0  0  0  0  0  0  0  0  0
   -0.4365   -2.9804   -1.2516 C   0  0  0  0  0  0  0  0  0  0  0  0
    0.5780   -3.3090   -1.0762 H   0  0  0  0  0  0  0  0  0  0  0  0
   -0.7735   -4.2675   -2.9277 H   0  0  0  0  0  0  0  0  0  0  0  0
   -3.9619   -1.6960   -1.7303 H   0  0  0  0  0  0  0  0  0  0  0  0
   -2.5834   -0.5705    0.3714 C   0  0  0  0  0  0  0  0  0  0  0  0
   -1.6425   -0.0579    1.1902 N   0  0  0  0  0  0  0  0  0  0  0  0
   -1.9958    0.8861    2.0578 C   0  0  0  0  0  0  0  0  0  0  0  0
   -3.2836    1.3705    2.1744 C   0  0  0  0  0  0  0  0  0  0  0  0
   -4.2685    0.8438    1.3446 C   0  0  0  0  0  0  0  0  0  0  0  0
   -3.9106   -0.1307    0.4370 C   0  0  0  0  0  0  0  0  0  0  0  0
   -4.6613   -0.5587   -0.2064 H   0  0  0  0  0  0  0  0  0  0  0  0
   -3.5141    2.1312    2.9025 H   0  0  0  0  0  0  0  0  0  0  0  0
   -1.1970    1.2655    2.6764 H   0  0  0  0  0  0  0  0  0  0  0  0
    0.4215   -0.8165    0.9133 Ir  0  0  0  0  0  0  0  0  0  0  0  0
    0.8726   -2.2303    1.5405 H   0  0  0  0  0  0  0  0  0  0  0  0
    0.3367    0.6210   -0.5966 B   0  0  0  0  0  0  0  0  0  0  0  0
   -0.3450    0.3353   -1.7674 O   0  0  0  0  0  0  0  0  0  0  0  0
   -0.5265    1.5311   -2.5327 C   0  0  0  0  0  0  0  0  0  0  0  0
   -0.3433    1.2268   -4.0172 C   0  0  0  0  0  0  0  0  0  0  0  0
    0.5919    0.7049   -4.1900 H   0  0  0  0  0  0  0  0  0  0  0  0
   -0.3600    2.1488   -4.5924 H   0  0  0  0  0  0  0  0  0  0  0  0
   -1.1566    0.5877   -4.3531 H   0  0  0  0  0  0  0  0  0  0  0  0
   -1.9667    2.0045   -2.2862 C   0  0  0  0  0  0  0  0  0  0  0  0
   -2.1969    2.8881   -2.8739 H   0  0  0  0  0  0  0  0  0  0  0  0
   -2.6486    1.2040   -2.5668 H   0  0  0  0  0  0  0  0  0  0  0  0
   -2.1142    2.2171   -1.2291 H   0  0  0  0  0  0  0  0  0  0  0  0
    0.5404    2.4930   -1.9157 C   0  0  0  0  0  0  0  0  0  0  0  0
    0.7391    1.9364   -0.6085 O   0  0  0  0  0  0  0  0  0  0  0  0
    1.8909    2.4107   -2.6377 C   0  0  0  0  0  0  0  0  0  0  0  0
    2.2243    1.3756   -2.6532 H   0  0  0  0  0  0  0  0  0  0  0  0
    1.8263    2.8069   -3.6469 H   0  0  0  0  0  0  0  0  0  0  0  0
    2.6219    2.9871   -2.0756 H   0  0  0  0  0  0  0  0  0  0  0  0
    0.1059    3.9528   -1.8038 C   0  0  0  0  0  0  0  0  0  0  0  0
   -0.7434    4.0609   -1.1362 H   0  0  0  0  0  0  0  0  0  0  0  0
    0.9286    4.5402   -1.4034 H   0  0  0  0  0  0  0  0  0  0  0  0
   -0.1539    4.3392   -2.7861 H   0  0  0  0  0  0  0  0  0  0  0  0
    1.5171    0.6859    1.8525 B   0  0  0  0  0  0  0  0  0  0  0  0
    2.8685    0.9189    1.8287 O   0  0  0  0  0  0  0  0  0  0  0  0
    3.1592    2.1960    2.4185 C   0  0  0  0  0  0  0  0  0  0  0  0
    4.4313    2.0999    3.2587 C   0  0  0  0  0  0  0  0  0  0  0  0
    4.3634    1.2920    3.9793 H   0  0  0  0  0  0  0  0  0  0  0  0
    5.2757    1.9005    2.6040 H   0  0  0  0  0  0  0  0  0  0  0  0
    4.6057    3.0381    3.7783 H   0  0  0  0  0  0  0  0  0  0  0  0
    3.3838    3.1698    1.2558 C   0  0  0  0  0  0  0  0  0  0  0  0
    3.5879    4.1752    1.6113 H   0  0  0  0  0  0  0  0  0  0  0  0
    4.2322    2.8215    0.6711 H   0  0  0  0  0  0  0  0  0  0  0  0
    2.5075    3.1604    0.6129 H   0  0  0  0  0  0  0  0  0  0  0  0
    1.8549    2.5075    3.2305 C   0  0  0  0  0  0  0  0  0  0  0  0
    0.8895    1.6380    2.6231 O   0  0  0  0  0  0  0  0  0  0  0  0
    1.3625    3.9503    3.1288 C   0  0  0  0  0  0  0  0  0  0  0  0
    1.1066    4.1959    2.1035 H   0  0  0  0  0  0  0  0  0  0  0  0
    0.4701    4.0644    3.7395 H   0  0  0  0  0  0  0  0  0  0  0  0
    2.1241    4.6347    3.4922 H   0  0  0  0  0  0  0  0  0  0  0  0
    1.9537    2.1105    4.7089 C   0  0  0  0  0  0  0  0  0  0  0  0
    2.2399    1.0661    4.7988 H   0  0  0  0  0  0  0  0  0  0  0  0
    2.6653    2.7379    5.2365 H   0  0  0  0  0  0  0  0  0  0  0  0
    0.9745    2.2253    5.1687 H   0  0  0  0  0  0  0  0  0  0  0  0
    2.2782   -1.3309    0.1741 B   0  0  0  0  0  0  0  0  0  0  0  0
    3.1827   -2.1764    0.7773 O   0  0  0  0  0  0  0  0  0  0  0  0
    4.4514   -2.1068    0.1119 C   0  0  0  0  0  0  0  0  0  0  0  0
    5.3573   -1.2383    0.9912 C   0  0  0  0  0  0  0  0  0  0  0  0
    4.8675   -0.2852    1.1680 H   0  0  0  0  0  0  0  0  0  0  0  0
    5.4821   -1.7332    1.9508 H   0  0  0  0  0  0  0  0  0  0  0  0
    6.3329   -1.0934    0.5380 H   0  0  0  0  0  0  0  0  0  0  0  0
    5.0471   -3.5107    0.0055 C   0  0  0  0  0  0  0  0  0  0  0  0
    5.2358   -3.8862    1.0077 H   0  0  0  0  0  0  0  0  0  0  0  0
    5.9852   -3.4775   -0.5413 H   0  0  0  0  0  0  0  0  0  0  0  0
    4.3643   -4.1953   -0.4863 H   0  0  0  0  0  0  0  0  0  0  0  0
    4.0915   -1.4320   -1.2604 C   0  0  0  0  0  0  0  0  0  0  0  0
    2.7938   -0.8684   -1.0129 O   0  0  0  0  0  0  0  0  0  0  0  0
    5.0380   -0.3123   -1.6911 C   0  0  0  0  0  0  0  0  0  0  0  0
    6.0521   -0.6885   -1.7912 H   0  0  0  0  0  0  0  0  0  0  0  0
    4.7114    0.0776   -2.6519 H   0  0  0  0  0  0  0  0  0  0  0  0
    5.0134    0.4983   -0.9711 H   0  0  0  0  0  0  0  0  0  0  0  0
    3.9419   -2.4338   -2.4130 C   0  0  0  0  0  0  0  0  0  0  0  0
    3.2372   -3.2158   -2.1449 H   0  0  0  0  0  0  0  0  0  0  0  0
    3.5471   -1.9094   -3.2798 H   0  0  0  0  0  0  0  0  0  0  0  0
    4.8994   -2.8752   -2.6723 H   0  0  0  0  0  0  0  0  0  0  0  0
   -3.1054   -3.4217   -3.2574 H   0  0  0  0  0  0  0  0  0  0  0  0
   -5.2902    1.1860    1.4099 H   0  0  0  0  0  0  0  0  0  0  0  0
    0.2359   -1.6814    2.9603 C   0  0  0  0  0  0  0  0  0  0  0  0
   -1.0152   -2.1159    3.3961 C   0  0  0  0  0  0  0  0  0  0  0  0
    1.2056   -1.5124    3.9534 C   0  0  0  0  0  0  0  0  0  0  0  0
   -1.2606   -2.2631    4.7511 C   0  0  0  0  0  0  0  0  0  0  0  0
   -1.8042   -2.3448    2.6922 H   0  0  0  0  0  0  0  0  0  0  0  0
    0.9903   -1.6724    5.2448 N   0  0  0  0  0  0  0  0  0  0  0  0
    2.2183   -1.2455    3.6809 H   0  0  0  0  0  0  0  0  0  0  0  0
   -0.2253   -2.0361    5.6542 C   0  0  0  0  0  0  0  0  0  0  0  0
   -2.2282   -2.5689    5.1216 H   0  0  0  0  0  0  0  0  0  0  0  0
   -0.5197   -2.1652    7.1129 C   0  0  0  0  0  0  0  0  0  0  0  0
   -1.6352   -1.8320    7.5238 O   0  0  0  0  0  0  0  0  0  0  0  0
    0.4164   -2.6587    7.9421 N   0  0  0  0  0  0  0  0  0  0  0  0
    1.7238   -3.1453    7.5490 C   0  0  0  0  0  0  0  0  0  0  0  0
    0.0936   -2.7666    9.3563 C   0  0  0  0  0  0  0  0  0  0  0  0
    2.8094   -2.0847    7.7175 C   0  0  0  0  0  0  0  0  0  0  0  0
    1.6907   -3.4609    6.5068 H   0  0  0  0  0  0  0  0  0  0  0  0
    1.9517   -4.0150    8.1713 H   0  0  0  0  0  0  0  0  0  0  0  0
   -0.5004   -4.1301    9.7038 C   0  0  0  0  0  0  0  0  0  0  0  0
   -0.6320   -1.9847    9.5917 H   0  0  0  0  0  0  0  0  0  0  0  0
    1.0060   -2.5930    9.9294 H   0  0  0  0  0  0  0  0  0  0  0  0
    2.5935   -1.2473    7.0618 H   0  0  0  0  0  0  0  0  0  0  0  0
    3.7736   -2.5061    7.4482 H   0  0  0  0  0  0  0  0  0  0  0  0
    2.8549   -1.7320    8.7448 H   0  0  0  0  0  0  0  0  0  0  0  0
   -1.4238   -4.2806    9.1501 H   0  0  0  0  0  0  0  0  0  0  0  0
   -0.7188   -4.1758   10.7671 H   0  0  0  0  0  0  0  0  0  0  0  0
    0.1915   -4.9311    9.4536 H   0  0  0  0  0  0  0  0  0  0  0  0
  1  2  4  0  0  0  0
  2  3  4  0  0  0  0
  3  4  4  0  0  0  0
  4  5  4  0  0  0  0
  1  6  4  0  0  0  0
  5  6  4  0  0  0  0
  6  7  1  0  0  0  0
  5  8  1  0  0  0  0
  3  9  1  0  0  0  0
  2 10  1  0  0  0  0
 10 11  4  0  0  0  0
 11 12  4  0  0  0  0
 12 13  4  0  0  0  0
 13 14  4  0  0  0  0
 10 15  4  0  0  0  0
 14 15  4  0  0  0  0
 15 16  1  0  0  0  0
 13 17  1  0  0  0  0
 12 18  1  0  0  0  0
  1 19  1  0  0  0  0
 11 19  1  0  0  0  0
 19 20  1  0  0  0  0
 19 21  1  0  0  0  0
 21 22  1  0  0  0  0
 22 23  1  0  0  0  0
 23 24  1  0  0  0  0
 24 25  1  0  0  0  0
 24 26  1  0  0  0  0
 24 27  1  0  0  0  0
 23 28  1  0  0  0  0
 28 29  1  0  0  0  0
 28 30  1  0  0  0  0
 28 31  1  0  0  0  0
 23 32  1  0  0  0  0
 21 33  1  0  0  0  0
 32 33  1  0  0  0  0
 32 34  1  0  0  0  0
 34 35  1  0  0  0  0
 34 36  1  0  0  0  0
 34 37  1  0  0  0  0
 32 38  1  0  0  0  0
 38 39  1  0  0  0  0
 38 40  1  0  0  0  0
 38 41  1  0  0  0  0
 19 42  1  0  0  0  0
 42 43  1  0  0  0  0
 43 44  1  0  0  0  0
 44 45  1  0  0  0  0
 45 46  1  0  0  0  0
 45 47  1  0  0  0  0
 45 48  1  0  0  0  0
 44 49  1  0  0  0  0
 49 50  1  0  0  0  0
 49 51  1  0  0  0  0
 49 52  1  0  0  0  0
 44 53  1  0  0  0  0
 42 54  1  0  0  0  0
 53 54  1  0  0  0  0
 53 55  1  0  0  0  0
 55 56  1  0  0  0  0
 55 57  1  0  0  0  0
 55 58  1  0  0  0  0
 53 59  1  0  0  0  0
 59 60  1  0  0  0  0
 59 61  1  0  0  0  0
 59 62  1  0  0  0  0
 19 63  1  0  0  0  0
 63 64  1  0  0  0  0
 64 65  1  0  0  0  0
 65 66  1  0  0  0  0
 66 67  1  0  0  0  0
 66 68  1  0  0  0  0
 66 69  1  0  0  0  0
 65 70  1  0  0  0  0
 70 71  1  0  0  0  0
 70 72  1  0  0  0  0
 70 73  1  0  0  0  0
 65 74  1  0  0  0  0
 63 75  1  0  0  0  0
 74 75  1  0  0  0  0
 74 76  1  0  0  0  0
 76 77  1  0  0  0  0
 76 78  1  0  0  0  0
 76 79  1  0  0  0  0
 74 80  1  0  0  0  0
 80 81  1  0  0  0  0
 80 82  1  0  0  0  0
 80 83  1  0  0  0  0
  4 84  1  0  0  0  0
 14 85  1  0  0  0  0
 19 86  1  0  0  0  0
 20 86  1  0  0  0  0
 86 87  4  0  0  0  0
 86 88  4  0  0  0  0
 87 89  4  0  0  0  0
 87 90  1  0  0  0  0
 88 91  4  0  0  0  0
 88 92  1  0  0  0  0
 89 93  4  0  0  0  0
 91 93  4  0  0  0  0
 89 94  1  0  0  0  0
 93 95  1  0  0  0  0
 95 96  2  0  0  0  0
 95 97  4  0  0  0  0
 97 98  1  0  0  0  0
 97 99  1  0  0  0  0
 98100  1  0  0  0  0
 98101  1  0  0  0  0
 98102  1  0  0  0  0
 99103  1  0  0  0  0
 99104  1  0  0  0  0
 99105  1  0  0  0  0
100106  1  0  0  0  0
100107  1  0  0  0  0
100108  1  0  0  0  0
103109  1  0  0  0  0
103110  1  0  0  0  0
103111  1  0  0  0  0
M  END
