
  xtb     01142213353D
 xtb: 6.4.1 (1a32961)
 98105  0     0  0            999 V2000
   -0.9484   -2.0072   -0.3604 N   0  0  0  0  0  0  0  0  0  0  0  0
   -2.1813   -1.4961   -0.5431 C   0  0  0  0  0  0  0  0  0  0  0  0
   -3.0649   -2.0647   -1.4702 C   0  0  0  0  0  0  0  0  0  0  0  0
   -2.6698   -3.1519   -2.2176 C   0  0  0  0  0  0  0  0  0  0  0  0
   -1.3879   -3.6627   -2.0248 C   0  0  0  0  0  0  0  0  0  0  0  0
   -0.5773   -3.0569   -1.0882 C   0  0  0  0  0  0  0  0  0  0  0  0
    0.4214   -3.4245   -0.8980 H   0  0  0  0  0  0  0  0  0  0  0  0
   -1.0355   -4.5115   -2.5881 H   0  0  0  0  0  0  0  0  0  0  0  0
   -4.0536   -1.6583   -1.6063 H   0  0  0  0  0  0  0  0  0  0  0  0
   -2.5210   -0.3308    0.2622 C   0  0  0  0  0  0  0  0  0  0  0  0
   -1.5735    0.1038    1.1217 N   0  0  0  0  0  0  0  0  0  0  0  0
   -1.8417    1.1614    1.8853 C   0  0  0  0  0  0  0  0  0  0  0  0
   -3.0345    1.8525    1.8376 C   0  0  0  0  0  0  0  0  0  0  0  0
   -4.0133    1.4305    0.9407 C   0  0  0  0  0  0  0  0  0  0  0  0
   -3.7497    0.3325    0.1512 C   0  0  0  0  0  0  0  0  0  0  0  0
   -4.4940   -0.0071   -0.5499 H   0  0  0  0  0  0  0  0  0  0  0  0
   -3.2000    2.6977    2.4857 H   0  0  0  0  0  0  0  0  0  0  0  0
   -1.0505    1.4550    2.5578 H   0  0  0  0  0  0  0  0  0  0  0  0
    0.4215   -0.8165    0.9133 Ir  0  0  0  0  0  0  0  0  0  0  0  0
    0.8726   -2.2303    1.5405 H   0  0  0  0  0  0  0  0  0  0  0  0
    0.3875    0.6059   -0.6108 B   0  0  0  0  0  0  0  0  0  0  0  0
   -0.1451    0.2727   -1.8416 O   0  0  0  0  0  0  0  0  0  0  0  0
   -0.2494    1.4395   -2.6653 C   0  0  0  0  0  0  0  0  0  0  0  0
    0.1542    1.0935   -4.0963 C   0  0  0  0  0  0  0  0  0  0  0  0
    1.1194    0.5983   -4.1114 H   0  0  0  0  0  0  0  0  0  0  0  0
    0.1945    1.9945   -4.7030 H   0  0  0  0  0  0  0  0  0  0  0  0
   -0.5824    0.4156   -4.5210 H   0  0  0  0  0  0  0  0  0  0  0  0
   -1.7213    1.8765   -2.6462 C   0  0  0  0  0  0  0  0  0  0  0  0
   -1.8838    2.7328   -3.2941 H   0  0  0  0  0  0  0  0  0  0  0  0
   -2.3351    1.0473   -2.9930 H   0  0  0  0  0  0  0  0  0  0  0  0
   -2.0270    2.1211   -1.6308 H   0  0  0  0  0  0  0  0  0  0  0  0
    0.6934    2.4535   -1.9386 C   0  0  0  0  0  0  0  0  0  0  0  0
    0.7260    1.9415   -0.5991 O   0  0  0  0  0  0  0  0  0  0  0  0
    2.1311    2.3946   -2.4689 C   0  0  0  0  0  0  0  0  0  0  0  0
    2.4960    1.3731   -2.3915 H   0  0  0  0  0  0  0  0  0  0  0  0
    2.1911    2.7479   -3.4943 H   0  0  0  0  0  0  0  0  0  0  0  0
    2.7614    3.0201   -1.8414 H   0  0  0  0  0  0  0  0  0  0  0  0
    0.2081    3.9016   -1.9351 C   0  0  0  0  0  0  0  0  0  0  0  0
   -0.7352    4.0019   -1.4070 H   0  0  0  0  0  0  0  0  0  0  0  0
    0.9454    4.5231   -1.4325 H   0  0  0  0  0  0  0  0  0  0  0  0
    0.0912    4.2553   -2.9563 H   0  0  0  0  0  0  0  0  0  0  0  0
    1.6005    0.6608    1.8247 B   0  0  0  0  0  0  0  0  0  0  0  0
    2.9083    1.0044    1.5906 O   0  0  0  0  0  0  0  0  0  0  0  0
    3.2520    2.2134    2.2817 C   0  0  0  0  0  0  0  0  0  0  0  0
    4.5982    2.0264    2.9843 C   0  0  0  0  0  0  0  0  0  0  0  0
    4.5868    1.1455    3.6183 H   0  0  0  0  0  0  0  0  0  0  0  0
    5.3738    1.8917    2.2342 H   0  0  0  0  0  0  0  0  0  0  0  0
    4.8373    2.9029    3.5797 H   0  0  0  0  0  0  0  0  0  0  0  0
    3.3896    3.3038    1.2129 C   0  0  0  0  0  0  0  0  0  0  0  0
    3.6143    4.2694    1.6558 H   0  0  0  0  0  0  0  0  0  0  0  0
    4.1976    3.0263    0.5394 H   0  0  0  0  0  0  0  0  0  0  0  0
    2.4722    3.3538    0.6332 H   0  0  0  0  0  0  0  0  0  0  0  0
    2.0333    2.4364    3.2506 C   0  0  0  0  0  0  0  0  0  0  0  0
    1.0585    1.5020    2.7695 O   0  0  0  0  0  0  0  0  0  0  0  0
    1.4251    3.8395    3.2003 C   0  0  0  0  0  0  0  0  0  0  0  0
    1.0549    4.0632    2.2052 H   0  0  0  0  0  0  0  0  0  0  0  0
    0.5882    3.8831    3.8932 H   0  0  0  0  0  0  0  0  0  0  0  0
    2.1612    4.5823    3.4947 H   0  0  0  0  0  0  0  0  0  0  0  0
    2.3275    2.0808    4.7133 C   0  0  0  0  0  0  0  0  0  0  0  0
    2.7007    1.0645    4.7915 H   0  0  0  0  0  0  0  0  0  0  0  0
    3.0469    2.7712    5.1428 H   0  0  0  0  0  0  0  0  0  0  0  0
    1.3993    2.1398    5.2768 H   0  0  0  0  0  0  0  0  0  0  0  0
    2.2782   -1.3309    0.1741 B   0  0  0  0  0  0  0  0  0  0  0  0
    3.1335   -2.2746    0.7047 O   0  0  0  0  0  0  0  0  0  0  0  0
    4.3990   -2.2316    0.0343 C   0  0  0  0  0  0  0  0  0  0  0  0
    5.3453   -1.4296    0.9344 C   0  0  0  0  0  0  0  0  0  0  0  0
    4.9179   -0.4462    1.1110 H   0  0  0  0  0  0  0  0  0  0  0  0
    5.4221   -1.9364    1.8937 H   0  0  0  0  0  0  0  0  0  0  0  0
    6.3353   -1.3440    0.4972 H   0  0  0  0  0  0  0  0  0  0  0  0
    4.9373   -3.6521   -0.1317 C   0  0  0  0  0  0  0  0  0  0  0  0
    5.1359   -4.0672    0.8529 H   0  0  0  0  0  0  0  0  0  0  0  0
    5.8621   -3.6359   -0.7015 H   0  0  0  0  0  0  0  0  0  0  0  0
    4.2161   -4.2929   -0.6280 H   0  0  0  0  0  0  0  0  0  0  0  0
    4.0528   -1.4879   -1.3018 C   0  0  0  0  0  0  0  0  0  0  0  0
    2.8199   -0.8231   -0.9864 O   0  0  0  0  0  0  0  0  0  0  0  0
    5.0861   -0.4534   -1.7438 C   0  0  0  0  0  0  0  0  0  0  0  0
    6.0599   -0.9204   -1.8630 H   0  0  0  0  0  0  0  0  0  0  0  0
    4.7816   -0.0279   -2.6970 H   0  0  0  0  0  0  0  0  0  0  0  0
    5.1494    0.3500   -1.0179 H   0  0  0  0  0  0  0  0  0  0  0  0
    3.7669   -2.4456   -2.4666 C   0  0  0  0  0  0  0  0  0  0  0  0
    3.0145   -3.1741   -2.1768 H   0  0  0  0  0  0  0  0  0  0  0  0
    3.3720   -1.8709   -3.3010 H   0  0  0  0  0  0  0  0  0  0  0  0
    4.6717   -2.9554   -2.7833 H   0  0  0  0  0  0  0  0  0  0  0  0
   -3.3398   -3.5965   -2.9377 H   0  0  0  0  0  0  0  0  0  0  0  0
   -4.9571    1.9491    0.8646 H   0  0  0  0  0  0  0  0  0  0  0  0
    0.2359   -1.6814    2.9603 C   0  0  0  0  0  0  0  0  0  0  0  0
   -1.0729   -2.0098    3.2995 C   0  0  0  0  0  0  0  0  0  0  0  0
    1.1540   -1.6063    4.0038 C   0  0  0  0  0  0  0  0  0  0  0  0
   -1.4927   -2.1422    4.6249 C   0  0  0  0  0  0  0  0  0  0  0  0
   -1.8083   -2.1688    2.5225 H   0  0  0  0  0  0  0  0  0  0  0  0
    2.8365   -1.3788    3.6568 Cl  0  0  0  0  0  0  0  0  0  0  0  0
    0.7688   -1.7352    5.3287 C   0  0  0  0  0  0  0  0  0  0  0  0
   -2.8228   -2.3662    4.9207 N   0  0  0  0  0  0  0  0  0  0  0  0
   -0.5515   -1.9858    5.6437 C   0  0  0  0  0  0  0  0  0  0  0  0
    1.5107   -1.6523    6.1068 H   0  0  0  0  0  0  0  0  0  0  0  0
   -3.3809   -2.7535    4.1776 H   0  0  0  0  0  0  0  0  0  0  0  0
   -3.0114   -2.7503    5.8320 H   0  0  0  0  0  0  0  0  0  0  0  0
   -0.8533   -2.0819    6.6758 H   0  0  0  0  0  0  0  0  0  0  0  0
  1  2  4  0  0  0  0
  2  3  4  0  0  0  0
  3  4  4  0  0  0  0
  4  5  4  0  0  0  0
  1  6  4  0  0  0  0
  5  6  4  0  0  0  0
  6  7  1  0  0  0  0
  5  8  1  0  0  0  0
  3  9  1  0  0  0  0
  2 10  1  0  0  0  0
 10 11  4  0  0  0  0
 11 12  4  0  0  0  0
 12 13  4  0  0  0  0
 13 14  4  0  0  0  0
 10 15  4  0  0  0  0
 14 15  4  0  0  0  0
 15 16  1  0  0  0  0
 13 17  1  0  0  0  0
 12 18  1  0  0  0  0
  1 19  1  0  0  0  0
 11 19  1  0  0  0  0
 19 20  1  0  0  0  0
 19 21  1  0  0  0  0
 21 22  1  0  0  0  0
 22 23  1  0  0  0  0
 23 24  1  0  0  0  0
 24 25  1  0  0  0  0
 24 26  1  0  0  0  0
 24 27  1  0  0  0  0
 23 28  1  0  0  0  0
 28 29  1  0  0  0  0
 28 30  1  0  0  0  0
 28 31  1  0  0  0  0
 23 32  1  0  0  0  0
 21 33  1  0  0  0  0
 32 33  1  0  0  0  0
 32 34  1  0  0  0  0
 34 35  1  0  0  0  0
 34 36  1  0  0  0  0
 34 37  1  0  0  0  0
 32 38  1  0  0  0  0
 38 39  1  0  0  0  0
 38 40  1  0  0  0  0
 38 41  1  0  0  0  0
 19 42  1  0  0  0  0
 42 43  1  0  0  0  0
 43 44  1  0  0  0  0
 44 45  1  0  0  0  0
 45 46  1  0  0  0  0
 45 47  1  0  0  0  0
 45 48  1  0  0  0  0
 44 49  1  0  0  0  0
 49 50  1  0  0  0  0
 49 51  1  0  0  0  0
 49 52  1  0  0  0  0
 44 53  1  0  0  0  0
 42 54  1  0  0  0  0
 53 54  1  0  0  0  0
 53 55  1  0  0  0  0
 55 56  1  0  0  0  0
 55 57  1  0  0  0  0
 55 58  1  0  0  0  0
 53 59  1  0  0  0  0
 59 60  1  0  0  0  0
 59 61  1  0  0  0  0
 59 62  1  0  0  0  0
 19 63  1  0  0  0  0
 63 64  1  0  0  0  0
 64 65  1  0  0  0  0
 65 66  1  0  0  0  0
 66 67  1  0  0  0  0
 66 68  1  0  0  0  0
 66 69  1  0  0  0  0
 65 70  1  0  0  0  0
 70 71  1  0  0  0  0
 70 72  1  0  0  0  0
 70 73  1  0  0  0  0
 65 74  1  0  0  0  0
 63 75  1  0  0  0  0
 74 75  1  0  0  0  0
 74 76  1  0  0  0  0
 76 77  1  0  0  0  0
 76 78  1  0  0  0  0
 76 79  1  0  0  0  0
 74 80  1  0  0  0  0
 80 81  1  0  0  0  0
 80 82  1  0  0  0  0
 80 83  1  0  0  0  0
  4 84  1  0  0  0  0
 14 85  1  0  0  0  0
 19 86  1  0  0  0  0
 20 86  1  0  0  0  0
 86 87  4  0  0  0  0
 86 88  4  0  0  0  0
 87 89  4  0  0  0  0
 87 90  1  0  0  0  0
 88 91  1  0  0  0  0
 88 92  4  0  0  0  0
 89 93  1  0  0  0  0
 89 94  4  0  0  0  0
 92 94  4  0  0  0  0
 92 95  1  0  0  0  0
 93 96  1  0  0  0  0
 93 97  1  0  0  0  0
 94 98  1  0  0  0  0
M  END
