
  xtb     01142215053D
 xtb: 6.4.1 (1a32961)
 96103  0     0  0            999 V2000
   -0.8863   -1.9596   -0.4917 N   0  0  0  0  0  0  0  0  0  0  0  0
   -2.1016   -1.4256   -0.6978 C   0  0  0  0  0  0  0  0  0  0  0  0
   -2.9173   -1.8794   -1.7386 C   0  0  0  0  0  0  0  0  0  0  0  0
   -2.4779   -2.8961   -2.5606 C   0  0  0  0  0  0  0  0  0  0  0  0
   -1.2218   -3.4438   -2.3300 C   0  0  0  0  0  0  0  0  0  0  0  0
   -0.4695   -2.9357   -1.2897 C   0  0  0  0  0  0  0  0  0  0  0  0
    0.5143   -3.3275   -1.0740 H   0  0  0  0  0  0  0  0  0  0  0  0
   -0.8385   -4.2422   -2.9438 H   0  0  0  0  0  0  0  0  0  0  0  0
   -3.8851   -1.4404   -1.9117 H   0  0  0  0  0  0  0  0  0  0  0  0
   -2.5120   -0.3597    0.2167 C   0  0  0  0  0  0  0  0  0  0  0  0
   -1.6006    0.0529    1.1202 N   0  0  0  0  0  0  0  0  0  0  0  0
   -1.9382    1.0089    1.9816 C   0  0  0  0  0  0  0  0  0  0  0  0
   -3.1811    1.6108    2.0033 C   0  0  0  0  0  0  0  0  0  0  0  0
   -4.1308    1.1997    1.0755 C   0  0  0  0  0  0  0  0  0  0  0  0
   -3.7887    0.2089    0.1783 C   0  0  0  0  0  0  0  0  0  0  0  0
   -4.5176   -0.1306   -0.5372 H   0  0  0  0  0  0  0  0  0  0  0  0
   -3.4020    2.3740    2.7316 H   0  0  0  0  0  0  0  0  0  0  0  0
   -1.1649    1.3046    2.6747 H   0  0  0  0  0  0  0  0  0  0  0  0
    0.4215   -0.8165    0.9133 Ir  0  0  0  0  0  0  0  0  0  0  0  0
    0.8726   -2.2303    1.5405 H   0  0  0  0  0  0  0  0  0  0  0  0
    0.4638    0.6395   -0.5873 B   0  0  0  0  0  0  0  0  0  0  0  0
   -0.2604    0.4535   -1.7470 O   0  0  0  0  0  0  0  0  0  0  0  0
   -0.2898    1.6704   -2.5043 C   0  0  0  0  0  0  0  0  0  0  0  0
   -0.1600    1.3524   -3.9911 C   0  0  0  0  0  0  0  0  0  0  0  0
    0.7036    0.7229   -4.1775 H   0  0  0  0  0  0  0  0  0  0  0  0
   -0.0721    2.2723   -4.5629 H   0  0  0  0  0  0  0  0  0  0  0  0
   -1.0480    0.8174   -4.3189 H   0  0  0  0  0  0  0  0  0  0  0  0
   -1.6536    2.3245   -2.2420 C   0  0  0  0  0  0  0  0  0  0  0  0
   -1.7688    3.2372   -2.8187 H   0  0  0  0  0  0  0  0  0  0  0  0
   -2.4357    1.6236   -2.5266 H   0  0  0  0  0  0  0  0  0  0  0  0
   -1.7661    2.5425   -1.1818 H   0  0  0  0  0  0  0  0  0  0  0  0
    0.8991    2.4811   -1.8911 C   0  0  0  0  0  0  0  0  0  0  0  0
    1.0420    1.8841   -0.5922 O   0  0  0  0  0  0  0  0  0  0  0  0
    2.2184    2.2412   -2.6341 C   0  0  0  0  0  0  0  0  0  0  0  0
    2.4240    1.1738   -2.6607 H   0  0  0  0  0  0  0  0  0  0  0  0
    2.1862    2.6499   -3.6397 H   0  0  0  0  0  0  0  0  0  0  0  0
    3.0233    2.7215   -2.0827 H   0  0  0  0  0  0  0  0  0  0  0  0
    0.6539    3.9818   -1.7503 C   0  0  0  0  0  0  0  0  0  0  0  0
   -0.1643    4.1849   -1.0663 H   0  0  0  0  0  0  0  0  0  0  0  0
    1.5506    4.4551   -1.3570 H   0  0  0  0  0  0  0  0  0  0  0  0
    0.4296    4.4140   -2.7220 H   0  0  0  0  0  0  0  0  0  0  0  0
    1.5478    0.6686    1.8587 B   0  0  0  0  0  0  0  0  0  0  0  0
    2.9096    0.7915    1.9051 O   0  0  0  0  0  0  0  0  0  0  0  0
    3.2826    2.0664    2.4505 C   0  0  0  0  0  0  0  0  0  0  0  0
    4.4394    1.8797    3.4322 C   0  0  0  0  0  0  0  0  0  0  0  0
    4.1884    1.1680    4.2122 H   0  0  0  0  0  0  0  0  0  0  0  0
    5.3018    1.4960    2.8930 H   0  0  0  0  0  0  0  0  0  0  0  0
    4.7037    2.8314    3.8842 H   0  0  0  0  0  0  0  0  0  0  0  0
    3.7541    2.9202    1.2678 C   0  0  0  0  0  0  0  0  0  0  0  0
    4.0134    3.9268    1.5805 H   0  0  0  0  0  0  0  0  0  0  0  0
    4.6323    2.4506    0.8305 H   0  0  0  0  0  0  0  0  0  0  0  0
    2.9724    2.9422    0.5137 H   0  0  0  0  0  0  0  0  0  0  0  0
    1.9452    2.5819    3.0952 C   0  0  0  0  0  0  0  0  0  0  0  0
    0.9545    1.7049    2.5372 O   0  0  0  0  0  0  0  0  0  0  0  0
    1.5774    4.0215    2.7366 C   0  0  0  0  0  0  0  0  0  0  0  0
    1.4328    4.1194    1.6659 H   0  0  0  0  0  0  0  0  0  0  0  0
    0.6458    4.2831    3.2324 H   0  0  0  0  0  0  0  0  0  0  0  0
    2.3535    4.7043    3.0701 H   0  0  0  0  0  0  0  0  0  0  0  0
    1.8927    2.4188    4.6192 C   0  0  0  0  0  0  0  0  0  0  0  0
    2.0898    1.3890    4.9063 H   0  0  0  0  0  0  0  0  0  0  0  0
    2.6107    3.0718    5.1048 H   0  0  0  0  0  0  0  0  0  0  0  0
    0.8942    2.6765    4.9659 H   0  0  0  0  0  0  0  0  0  0  0  0
    2.2782   -1.3309    0.1741 B   0  0  0  0  0  0  0  0  0  0  0  0
    3.1666   -2.1696    0.8078 O   0  0  0  0  0  0  0  0  0  0  0  0
    4.4190   -2.1890    0.1074 C   0  0  0  0  0  0  0  0  0  0  0  0
    5.3793   -1.2981    0.9017 C   0  0  0  0  0  0  0  0  0  0  0  0
    4.9347   -0.3141    1.0181 H   0  0  0  0  0  0  0  0  0  0  0  0
    5.5057   -1.7255    1.8935 H   0  0  0  0  0  0  0  0  0  0  0  0
    6.3496   -1.2282    0.4202 H   0  0  0  0  0  0  0  0  0  0  0  0
    4.9612   -3.6177    0.0781 C   0  0  0  0  0  0  0  0  0  0  0  0
    5.1760   -3.9312    1.0963 H   0  0  0  0  0  0  0  0  0  0  0  0
    5.8780   -3.6573   -0.5032 H   0  0  0  0  0  0  0  0  0  0  0  0
    4.2363   -4.3086   -0.3391 H   0  0  0  0  0  0  0  0  0  0  0  0
    4.0413   -1.5928   -1.2951 C   0  0  0  0  0  0  0  0  0  0  0  0
    2.7828   -0.9439   -1.0418 O   0  0  0  0  0  0  0  0  0  0  0  0
    5.0312   -0.5664   -1.8422 C   0  0  0  0  0  0  0  0  0  0  0  0
    6.0182   -1.0095   -1.9395 H   0  0  0  0  0  0  0  0  0  0  0  0
    4.6971   -0.2369   -2.8229 H   0  0  0  0  0  0  0  0  0  0  0  0
    5.0790    0.2999   -1.1914 H   0  0  0  0  0  0  0  0  0  0  0  0
    3.7887   -2.6653   -2.3626 C   0  0  0  0  0  0  0  0  0  0  0  0
    3.0605   -3.3885   -2.0061 H   0  0  0  0  0  0  0  0  0  0  0  0
    3.3798   -2.1849   -3.2481 H   0  0  0  0  0  0  0  0  0  0  0  0
    4.7102   -3.1736   -2.6293 H   0  0  0  0  0  0  0  0  0  0  0  0
   -3.0995   -3.2569   -3.3655 H   0  0  0  0  0  0  0  0  0  0  0  0
   -5.1158    1.6400    1.0583 H   0  0  0  0  0  0  0  0  0  0  0  0
    0.2359   -1.6814    2.9603 C   0  0  0  0  0  0  0  0  0  0  0  0
   -0.9452   -2.1962    3.5019 C   0  0  0  0  0  0  0  0  0  0  0  0
    1.2228   -1.3947    3.9147 C   0  0  0  0  0  0  0  0  0  0  0  0
   -1.1539   -2.2525    4.8751 C   0  0  0  0  0  0  0  0  0  0  0  0
   -2.3393   -2.9080    2.4137 Br  0  0  0  0  0  0  0  0  0  0  0  0
    0.9375   -1.4882    5.2727 C   0  0  0  0  0  0  0  0  0  0  0  0
    2.2079   -1.1026    3.5875 H   0  0  0  0  0  0  0  0  0  0  0  0
   -0.2495   -1.8843    5.7540 N   0  0  0  0  0  0  0  0  0  0  0  0
   -2.0893   -2.6137    5.2822 H   0  0  0  0  0  0  0  0  0  0  0  0
    1.9414   -1.1556    6.2175 C   0  0  0  0  0  0  0  0  0  0  0  0
    2.7769   -0.8768    6.9528 N   0  0  0  0  0  0  0  0  0  0  0  0
  1  2  4  0  0  0  0
  2  3  4  0  0  0  0
  3  4  4  0  0  0  0
  4  5  4  0  0  0  0
  1  6  4  0  0  0  0
  5  6  4  0  0  0  0
  6  7  1  0  0  0  0
  5  8  1  0  0  0  0
  3  9  1  0  0  0  0
  2 10  1  0  0  0  0
 10 11  4  0  0  0  0
 11 12  4  0  0  0  0
 12 13  4  0  0  0  0
 13 14  4  0  0  0  0
 10 15  4  0  0  0  0
 14 15  4  0  0  0  0
 15 16  1  0  0  0  0
 13 17  1  0  0  0  0
 12 18  1  0  0  0  0
  1 19  1  0  0  0  0
 11 19  1  0  0  0  0
 19 20  1  0  0  0  0
 19 21  1  0  0  0  0
 21 22  1  0  0  0  0
 22 23  1  0  0  0  0
 23 24  1  0  0  0  0
 24 25  1  0  0  0  0
 24 26  1  0  0  0  0
 24 27  1  0  0  0  0
 23 28  1  0  0  0  0
 28 29  1  0  0  0  0
 28 30  1  0  0  0  0
 28 31  1  0  0  0  0
 23 32  1  0  0  0  0
 21 33  1  0  0  0  0
 32 33  1  0  0  0  0
 32 34  1  0  0  0  0
 34 35  1  0  0  0  0
 34 36  1  0  0  0  0
 34 37  1  0  0  0  0
 32 38  1  0  0  0  0
 38 39  1  0  0  0  0
 38 40  1  0  0  0  0
 38 41  1  0  0  0  0
 19 42  1  0  0  0  0
 42 43  1  0  0  0  0
 43 44  1  0  0  0  0
 44 45  1  0  0  0  0
 45 46  1  0  0  0  0
 45 47  1  0  0  0  0
 45 48  1  0  0  0  0
 44 49  1  0  0  0  0
 49 50  1  0  0  0  0
 49 51  1  0  0  0  0
 49 52  1  0  0  0  0
 44 53  1  0  0  0  0
 42 54  1  0  0  0  0
 53 54  1  0  0  0  0
 53 55  1  0  0  0  0
 55 56  1  0  0  0  0
 55 57  1  0  0  0  0
 55 58  1  0  0  0  0
 53 59  1  0  0  0  0
 59 60  1  0  0  0  0
 59 61  1  0  0  0  0
 59 62  1  0  0  0  0
 19 63  1  0  0  0  0
 63 64  1  0  0  0  0
 64 65  1  0  0  0  0
 65 66  1  0  0  0  0
 66 67  1  0  0  0  0
 66 68  1  0  0  0  0
 66 69  1  0  0  0  0
 65 70  1  0  0  0  0
 70 71  1  0  0  0  0
 70 72  1  0  0  0  0
 70 73  1  0  0  0  0
 65 74  1  0  0  0  0
 63 75  1  0  0  0  0
 74 75  1  0  0  0  0
 74 76  1  0  0  0  0
 76 77  1  0  0  0  0
 76 78  1  0  0  0  0
 76 79  1  0  0  0  0
 74 80  1  0  0  0  0
 80 81  1  0  0  0  0
 80 82  1  0  0  0  0
 80 83  1  0  0  0  0
  4 84  1  0  0  0  0
 14 85  1  0  0  0  0
 19 86  1  0  0  0  0
 20 86  1  0  0  0  0
 86 87  4  0  0  0  0
 86 88  4  0  0  0  0
 87 89  4  0  0  0  0
 87 90  1  0  0  0  0
 88 91  4  0  0  0  0
 88 92  1  0  0  0  0
 89 93  4  0  0  0  0
 91 93  4  0  0  0  0
 89 94  1  0  0  0  0
 91 95  1  0  0  0  0
 95 96  3  0  0  0  0
M  END
