
  xtb     01142213213D
 xtb: 6.4.1 (1a32961)
 99107  0     0  0            999 V2000
   -0.8794   -1.9988   -0.4288 N   0  0  0  0  0  0  0  0  0  0  0  0
   -2.1126   -1.4983   -0.6362 C   0  0  0  0  0  0  0  0  0  0  0  0
   -2.9405   -2.0167   -1.6399 C   0  0  0  0  0  0  0  0  0  0  0  0
   -2.4942   -3.0511   -2.4325 C   0  0  0  0  0  0  0  0  0  0  0  0
   -1.2175   -3.5593   -2.2062 C   0  0  0  0  0  0  0  0  0  0  0  0
   -0.4600   -2.9993   -1.1993 C   0  0  0  0  0  0  0  0  0  0  0  0
    0.5356   -3.3632   -0.9888 H   0  0  0  0  0  0  0  0  0  0  0  0
   -0.8269   -4.3687   -2.8011 H   0  0  0  0  0  0  0  0  0  0  0  0
   -3.9243   -1.6098   -1.8053 H   0  0  0  0  0  0  0  0  0  0  0  0
   -2.5139   -0.3948    0.2270 C   0  0  0  0  0  0  0  0  0  0  0  0
   -1.5970    0.0372    1.1196 N   0  0  0  0  0  0  0  0  0  0  0  0
   -1.9218    1.0417    1.9314 C   0  0  0  0  0  0  0  0  0  0  0  0
   -3.1452    1.6795    1.9053 C   0  0  0  0  0  0  0  0  0  0  0  0
   -4.0976    1.2528    0.9833 C   0  0  0  0  0  0  0  0  0  0  0  0
   -3.7750    0.2086    0.1438 C   0  0  0  0  0  0  0  0  0  0  0  0
   -4.5013   -0.1381   -0.5722 H   0  0  0  0  0  0  0  0  0  0  0  0
   -3.3532    2.4867    2.5887 H   0  0  0  0  0  0  0  0  0  0  0  0
   -1.1491    1.3436    2.6216 H   0  0  0  0  0  0  0  0  0  0  0  0
    0.4215   -0.8165    0.9133 Ir  0  0  0  0  0  0  0  0  0  0  0  0
    0.8726   -2.2303    1.5405 H   0  0  0  0  0  0  0  0  0  0  0  0
    0.4584    0.6176   -0.6039 B   0  0  0  0  0  0  0  0  0  0  0  0
   -0.2417    0.3938   -1.7759 O   0  0  0  0  0  0  0  0  0  0  0  0
   -0.2643    1.5855   -2.5688 C   0  0  0  0  0  0  0  0  0  0  0  0
   -0.0905    1.2260   -4.0422 C   0  0  0  0  0  0  0  0  0  0  0  0
    0.7835    0.5994   -4.1851 H   0  0  0  0  0  0  0  0  0  0  0  0
    0.0057    2.1295   -4.6387 H   0  0  0  0  0  0  0  0  0  0  0  0
   -0.9642    0.6730   -4.3793 H   0  0  0  0  0  0  0  0  0  0  0  0
   -1.6411    2.2340   -2.3649 C   0  0  0  0  0  0  0  0  0  0  0  0
   -1.7485    3.1276   -2.9725 H   0  0  0  0  0  0  0  0  0  0  0  0
   -2.4091    1.5173   -2.6495 H   0  0  0  0  0  0  0  0  0  0  0  0
   -1.7853    2.4831   -1.3153 H   0  0  0  0  0  0  0  0  0  0  0  0
    0.8989    2.4276   -1.9499 C   0  0  0  0  0  0  0  0  0  0  0  0
    1.0099    1.8775   -0.6297 O   0  0  0  0  0  0  0  0  0  0  0  0
    2.2413    2.1733   -2.6456 C   0  0  0  0  0  0  0  0  0  0  0  0
    2.4488    1.1060   -2.6400 H   0  0  0  0  0  0  0  0  0  0  0  0
    2.2426    2.5585   -3.6611 H   0  0  0  0  0  0  0  0  0  0  0  0
    3.0263    2.6670   -2.0775 H   0  0  0  0  0  0  0  0  0  0  0  0
    0.6396    3.9306   -1.8705 C   0  0  0  0  0  0  0  0  0  0  0  0
   -0.2005    4.1516   -1.2194 H   0  0  0  0  0  0  0  0  0  0  0  0
    1.5208    4.4235   -1.4662 H   0  0  0  0  0  0  0  0  0  0  0  0
    0.4427    4.3268   -2.8634 H   0  0  0  0  0  0  0  0  0  0  0  0
    1.5444    0.6504    1.8983 B   0  0  0  0  0  0  0  0  0  0  0  0
    2.9059    0.8184    1.8962 O   0  0  0  0  0  0  0  0  0  0  0  0
    3.2586    2.0765    2.4873 C   0  0  0  0  0  0  0  0  0  0  0  0
    4.4968    1.9064    3.3658 C   0  0  0  0  0  0  0  0  0  0  0  0
    4.3556    1.1227    4.1018 H   0  0  0  0  0  0  0  0  0  0  0  0
    5.3423    1.6284    2.7423 H   0  0  0  0  0  0  0  0  0  0  0  0
    4.7277    2.8391    3.8733 H   0  0  0  0  0  0  0  0  0  0  0  0
    3.5854    3.0261    1.3281 C   0  0  0  0  0  0  0  0  0  0  0  0
    3.8295    4.0222    1.6846 H   0  0  0  0  0  0  0  0  0  0  0  0
    4.4397    2.6277    0.7851 H   0  0  0  0  0  0  0  0  0  0  0  0
    2.7393    3.0583    0.6467 H   0  0  0  0  0  0  0  0  0  0  0  0
    1.9524    2.4760    3.2575 C   0  0  0  0  0  0  0  0  0  0  0  0
    0.9549    1.6447    2.6498 O   0  0  0  0  0  0  0  0  0  0  0  0
    1.5423    3.9405    3.1100 C   0  0  0  0  0  0  0  0  0  0  0  0
    1.3323    4.1758    2.0720 H   0  0  0  0  0  0  0  0  0  0  0  0
    0.6398    4.1174    3.6901 H   0  0  0  0  0  0  0  0  0  0  0  0
    2.3298    4.5899    3.4823 H   0  0  0  0  0  0  0  0  0  0  0  0
    1.9933    2.1135    4.7477 C   0  0  0  0  0  0  0  0  0  0  0  0
    2.2189    1.0571    4.8685 H   0  0  0  0  0  0  0  0  0  0  0  0
    2.7297    2.7100    5.2772 H   0  0  0  0  0  0  0  0  0  0  0  0
    1.0126    2.2964    5.1809 H   0  0  0  0  0  0  0  0  0  0  0  0
    2.2782   -1.3309    0.1741 B   0  0  0  0  0  0  0  0  0  0  0  0
    3.2106   -2.0976    0.8425 O   0  0  0  0  0  0  0  0  0  0  0  0
    4.4487   -2.1267    0.1212 C   0  0  0  0  0  0  0  0  0  0  0  0
    5.3946   -1.1471    0.8241 C   0  0  0  0  0  0  0  0  0  0  0  0
    4.9182   -0.1725    0.8794 H   0  0  0  0  0  0  0  0  0  0  0  0
    5.5635   -1.4942    1.8408 H   0  0  0  0  0  0  0  0  0  0  0  0
    6.3509   -1.0799    0.3150 H   0  0  0  0  0  0  0  0  0  0  0  0
    5.0426   -3.5339    0.1854 C   0  0  0  0  0  0  0  0  0  0  0  0
    5.2976   -3.7603    1.2174 H   0  0  0  0  0  0  0  0  0  0  0  0
    5.9446   -3.5858   -0.4176 H   0  0  0  0  0  0  0  0  0  0  0  0
    4.3329   -4.2801   -0.1562 H   0  0  0  0  0  0  0  0  0  0  0  0
    4.0232   -1.6505   -1.3123 C   0  0  0  0  0  0  0  0  0  0  0  0
    2.7542   -1.0176   -1.0785 O   0  0  0  0  0  0  0  0  0  0  0  0
    4.9749   -0.6475   -1.9615 C   0  0  0  0  0  0  0  0  0  0  0  0
    5.9712   -1.0731   -2.0435 H   0  0  0  0  0  0  0  0  0  0  0  0
    4.6144   -0.4064   -2.9585 H   0  0  0  0  0  0  0  0  0  0  0  0
    5.0138    0.2695   -1.3835 H   0  0  0  0  0  0  0  0  0  0  0  0
    3.7776   -2.8102   -2.2867 C   0  0  0  0  0  0  0  0  0  0  0  0
    3.0805   -3.5235   -1.8557 H   0  0  0  0  0  0  0  0  0  0  0  0
    3.3329   -2.4121   -3.1956 H   0  0  0  0  0  0  0  0  0  0  0  0
    4.7073   -3.3117   -2.5373 H   0  0  0  0  0  0  0  0  0  0  0  0
   -3.1208   -3.4563   -3.2122 H   0  0  0  0  0  0  0  0  0  0  0  0
   -5.0661    1.7259    0.9262 H   0  0  0  0  0  0  0  0  0  0  0  0
    0.2359   -1.6814    2.9603 C   0  0  0  0  0  0  0  0  0  0  0  0
   -0.9739   -1.9200    3.5536 C   0  0  0  0  0  0  0  0  0  0  0  0
    1.1854   -1.7045    4.0266 C   0  0  0  0  0  0  0  0  0  0  0  0
   -0.8445   -2.0406    4.9236 N   0  0  0  0  0  0  0  0  0  0  0  0
   -1.9456   -2.0152    3.1085 H   0  0  0  0  0  0  0  0  0  0  0  0
    2.5684   -1.5999    4.1059 C   0  0  0  0  0  0  0  0  0  0  0  0
    0.4639   -1.9134    5.2405 C   0  0  0  0  0  0  0  0  0  0  0  0
   -1.5899   -2.1965    5.5814 H   0  0  0  0  0  0  0  0  0  0  0  0
    3.1088   -1.6870    5.3748 C   0  0  0  0  0  0  0  0  0  0  0  0
    3.1575   -1.4585    3.2131 H   0  0  0  0  0  0  0  0  0  0  0  0
    1.0011   -1.9880    6.4528 N   0  0  0  0  0  0  0  0  0  0  0  0
    5.0004   -1.5571    5.6080 Br  0  0  0  0  0  0  0  0  0  0  0  0
    2.3141   -1.8700    6.5081 C   0  0  0  0  0  0  0  0  0  0  0  0
    2.7562   -1.9287    7.4929 H   0  0  0  0  0  0  0  0  0  0  0  0
  1  2  4  0  0  0  0
  2  3  4  0  0  0  0
  3  4  4  0  0  0  0
  4  5  4  0  0  0  0
  1  6  4  0  0  0  0
  5  6  4  0  0  0  0
  6  7  1  0  0  0  0
  5  8  1  0  0  0  0
  3  9  1  0  0  0  0
  2 10  1  0  0  0  0
 10 11  4  0  0  0  0
 11 12  4  0  0  0  0
 12 13  4  0  0  0  0
 13 14  4  0  0  0  0
 10 15  4  0  0  0  0
 14 15  4  0  0  0  0
 15 16  1  0  0  0  0
 13 17  1  0  0  0  0
 12 18  1  0  0  0  0
  1 19  1  0  0  0  0
 11 19  1  0  0  0  0
 19 20  1  0  0  0  0
 19 21  1  0  0  0  0
 21 22  1  0  0  0  0
 22 23  1  0  0  0  0
 23 24  1  0  0  0  0
 24 25  1  0  0  0  0
 24 26  1  0  0  0  0
 24 27  1  0  0  0  0
 23 28  1  0  0  0  0
 28 29  1  0  0  0  0
 28 30  1  0  0  0  0
 28 31  1  0  0  0  0
 23 32  1  0  0  0  0
 21 33  1  0  0  0  0
 32 33  1  0  0  0  0
 32 34  1  0  0  0  0
 34 35  1  0  0  0  0
 34 36  1  0  0  0  0
 34 37  1  0  0  0  0
 32 38  1  0  0  0  0
 38 39  1  0  0  0  0
 38 40  1  0  0  0  0
 38 41  1  0  0  0  0
 19 42  1  0  0  0  0
 42 43  1  0  0  0  0
 43 44  1  0  0  0  0
 44 45  1  0  0  0  0
 45 46  1  0  0  0  0
 45 47  1  0  0  0  0
 45 48  1  0  0  0  0
 44 49  1  0  0  0  0
 49 50  1  0  0  0  0
 49 51  1  0  0  0  0
 49 52  1  0  0  0  0
 44 53  1  0  0  0  0
 42 54  1  0  0  0  0
 53 54  1  0  0  0  0
 53 55  1  0  0  0  0
 55 56  1  0  0  0  0
 55 57  1  0  0  0  0
 55 58  1  0  0  0  0
 53 59  1  0  0  0  0
 59 60  1  0  0  0  0
 59 61  1  0  0  0  0
 59 62  1  0  0  0  0
 19 63  1  0  0  0  0
 63 64  1  0  0  0  0
 64 65  1  0  0  0  0
 65 66  1  0  0  0  0
 66 67  1  0  0  0  0
 66 68  1  0  0  0  0
 66 69  1  0  0  0  0
 65 70  1  0  0  0  0
 70 71  1  0  0  0  0
 70 72  1  0  0  0  0
 70 73  1  0  0  0  0
 65 74  1  0  0  0  0
 63 75  1  0  0  0  0
 74 75  1  0  0  0  0
 74 76  1  0  0  0  0
 76 77  1  0  0  0  0
 76 78  1  0  0  0  0
 76 79  1  0  0  0  0
 74 80  1  0  0  0  0
 80 81  1  0  0  0  0
 80 82  1  0  0  0  0
 80 83  1  0  0  0  0
  4 84  1  0  0  0  0
 14 85  1  0  0  0  0
 19 86  1  0  0  0  0
 20 86  1  0  0  0  0
 86 87  2  0  0  0  0
 86 88  1  0  0  0  0
 87 89  1  0  0  0  0
 87 90  1  0  0  0  0
 88 91  4  0  0  0  0
 88 92  1  0  0  0  0
 89 92  4  0  0  0  0
 89 93  1  0  0  0  0
 91 94  4  0  0  0  0
 91 95  1  0  0  0  0
 92 96  4  0  0  0  0
 94 97  1  0  0  0  0
 94 98  4  0  0  0  0
 96 98  4  0  0  0  0
 98 99  1  0  0  0  0
M  END
