
  xtb     01142213213D
 xtb: 6.4.1 (1a32961)
 99107  0     0  0            999 V2000
   -0.9485   -2.0246   -0.3800 N   0  0  0  0  0  0  0  0  0  0  0  0
   -2.1844   -1.5207   -0.5474 C   0  0  0  0  0  0  0  0  0  0  0  0
   -3.0236   -1.9917   -1.5632 C   0  0  0  0  0  0  0  0  0  0  0  0
   -2.5847   -2.9921   -2.4043 C   0  0  0  0  0  0  0  0  0  0  0  0
   -1.3077   -3.5107   -2.2136 C   0  0  0  0  0  0  0  0  0  0  0  0
   -0.5358   -2.9914   -1.1943 C   0  0  0  0  0  0  0  0  0  0  0  0
    0.4625   -3.3610   -1.0082 H   0  0  0  0  0  0  0  0  0  0  0  0
   -0.9250   -4.2954   -2.8454 H   0  0  0  0  0  0  0  0  0  0  0  0
   -4.0054   -1.5713   -1.7047 H   0  0  0  0  0  0  0  0  0  0  0  0
   -2.5780   -0.4547    0.3709 C   0  0  0  0  0  0  0  0  0  0  0  0
   -1.6199    0.0128    1.1969 N   0  0  0  0  0  0  0  0  0  0  0  0
   -1.9252    0.9910    2.0453 C   0  0  0  0  0  0  0  0  0  0  0  0
   -3.1826    1.5555    2.1333 C   0  0  0  0  0  0  0  0  0  0  0  0
   -4.1847    1.0784    1.2944 C   0  0  0  0  0  0  0  0  0  0  0  0
   -3.8754    0.0686    0.4071 C   0  0  0  0  0  0  0  0  0  0  0  0
   -4.6411   -0.3185   -0.2440 H   0  0  0  0  0  0  0  0  0  0  0  0
   -3.3773    2.3411    2.8449 H   0  0  0  0  0  0  0  0  0  0  0  0
   -1.1115    1.3307    2.6676 H   0  0  0  0  0  0  0  0  0  0  0  0
    0.4215   -0.8165    0.9133 Ir  0  0  0  0  0  0  0  0  0  0  0  0
    0.8726   -2.2303    1.5405 H   0  0  0  0  0  0  0  0  0  0  0  0
    0.3714    0.5959   -0.6190 B   0  0  0  0  0  0  0  0  0  0  0  0
   -0.3277    0.3262   -1.7828 O   0  0  0  0  0  0  0  0  0  0  0  0
   -0.4648    1.5224   -2.5577 C   0  0  0  0  0  0  0  0  0  0  0  0
   -0.3031    1.1985   -4.0403 C   0  0  0  0  0  0  0  0  0  0  0  0
    0.6087    0.6372   -4.2146 H   0  0  0  0  0  0  0  0  0  0  0  0
   -0.2848    2.1157   -4.6231 H   0  0  0  0  0  0  0  0  0  0  0  0
   -1.1442    0.5914   -4.3666 H   0  0  0  0  0  0  0  0  0  0  0  0
   -1.8825    2.0573   -2.3073 C   0  0  0  0  0  0  0  0  0  0  0  0
   -2.0784    2.9445   -2.9020 H   0  0  0  0  0  0  0  0  0  0  0  0
   -2.5989    1.2839   -2.5774 H   0  0  0  0  0  0  0  0  0  0  0  0
   -2.0147    2.2862   -1.2515 H   0  0  0  0  0  0  0  0  0  0  0  0
    0.6440    2.4452   -1.9546 C   0  0  0  0  0  0  0  0  0  0  0  0
    0.8241    1.8934   -0.6428 O   0  0  0  0  0  0  0  0  0  0  0  0
    1.9866    2.2998   -2.6809 C   0  0  0  0  0  0  0  0  0  0  0  0
    2.2787    1.2523   -2.6834 H   0  0  0  0  0  0  0  0  0  0  0  0
    1.9334    2.6854   -3.6948 H   0  0  0  0  0  0  0  0  0  0  0  0
    2.7424    2.8535   -2.1290 H   0  0  0  0  0  0  0  0  0  0  0  0
    0.2714    3.9228   -1.8553 C   0  0  0  0  0  0  0  0  0  0  0  0
   -0.5688    4.0732   -1.1845 H   0  0  0  0  0  0  0  0  0  0  0  0
    1.1203    4.4790   -1.4653 H   0  0  0  0  0  0  0  0  0  0  0  0
    0.0226    4.3102   -2.8400 H   0  0  0  0  0  0  0  0  0  0  0  0
    1.5784    0.6497    1.8476 B   0  0  0  0  0  0  0  0  0  0  0  0
    2.9395    0.8134    1.8299 O   0  0  0  0  0  0  0  0  0  0  0  0
    3.2847    2.0997    2.3679 C   0  0  0  0  0  0  0  0  0  0  0  0
    4.5586    1.9917    3.2036 C   0  0  0  0  0  0  0  0  0  0  0  0
    4.4730    1.2107    3.9516 H   0  0  0  0  0  0  0  0  0  0  0  0
    5.3931    1.7460    2.5521 H   0  0  0  0  0  0  0  0  0  0  0  0
    4.7641    2.9409    3.6911 H   0  0  0  0  0  0  0  0  0  0  0  0
    3.5354    3.0193    1.1671 C   0  0  0  0  0  0  0  0  0  0  0  0
    3.7910    4.0265    1.4822 H   0  0  0  0  0  0  0  0  0  0  0  0
    4.3580    2.6110    0.5844 H   0  0  0  0  0  0  0  0  0  0  0  0
    2.6502    3.0258    0.5366 H   0  0  0  0  0  0  0  0  0  0  0  0
    1.9983    2.4906    3.1721 C   0  0  0  0  0  0  0  0  0  0  0  0
    0.9922    1.6552    2.5815 O   0  0  0  0  0  0  0  0  0  0  0  0
    1.5793    3.9536    3.0434 C   0  0  0  0  0  0  0  0  0  0  0  0
    1.3246    4.1889    2.0155 H   0  0  0  0  0  0  0  0  0  0  0  0
    0.7023    4.1290    3.6617 H   0  0  0  0  0  0  0  0  0  0  0  0
    2.3809    4.6044    3.3817 H   0  0  0  0  0  0  0  0  0  0  0  0
    2.0817    2.1149    4.6568 C   0  0  0  0  0  0  0  0  0  0  0  0
    2.3334    1.0630    4.7592 H   0  0  0  0  0  0  0  0  0  0  0  0
    2.8156    2.7244    5.1749 H   0  0  0  0  0  0  0  0  0  0  0  0
    1.1074    2.2716    5.1139 H   0  0  0  0  0  0  0  0  0  0  0  0
    2.2782   -1.3309    0.1741 B   0  0  0  0  0  0  0  0  0  0  0  0
    3.1248   -2.2659    0.7250 O   0  0  0  0  0  0  0  0  0  0  0  0
    4.4027   -2.2271    0.0748 C   0  0  0  0  0  0  0  0  0  0  0  0
    5.3479   -1.4742    1.0168 C   0  0  0  0  0  0  0  0  0  0  0  0
    4.9144   -0.5061    1.2501 H   0  0  0  0  0  0  0  0  0  0  0  0
    5.4294   -2.0365    1.9435 H   0  0  0  0  0  0  0  0  0  0  0  0
    6.3366   -1.3606    0.5835 H   0  0  0  0  0  0  0  0  0  0  0  0
    4.9149   -3.6540   -0.1221 C   0  0  0  0  0  0  0  0  0  0  0  0
    5.0702   -4.1067    0.8535 H   0  0  0  0  0  0  0  0  0  0  0  0
    5.8590   -3.6416   -0.6592 H   0  0  0  0  0  0  0  0  0  0  0  0
    4.1976   -4.2616   -0.6634 H   0  0  0  0  0  0  0  0  0  0  0  0
    4.0971   -1.4416   -1.2509 C   0  0  0  0  0  0  0  0  0  0  0  0
    2.8340   -0.8173   -0.9722 O   0  0  0  0  0  0  0  0  0  0  0  0
    5.1156   -0.3589   -1.6037 C   0  0  0  0  0  0  0  0  0  0  0  0
    6.1032   -0.7934   -1.7303 H   0  0  0  0  0  0  0  0  0  0  0  0
    4.8186    0.1172   -2.5347 H   0  0  0  0  0  0  0  0  0  0  0  0
    5.1420    0.3998   -0.8294 H   0  0  0  0  0  0  0  0  0  0  0  0
    3.8943   -2.3544   -2.4677 C   0  0  0  0  0  0  0  0  0  0  0  0
    3.1354   -3.1022   -2.2560 H   0  0  0  0  0  0  0  0  0  0  0  0
    3.5458   -1.7496   -3.3013 H   0  0  0  0  0  0  0  0  0  0  0  0
    4.8229   -2.8413   -2.7490 H   0  0  0  0  0  0  0  0  0  0  0  0
   -3.2195   -3.3618   -3.1949 H   0  0  0  0  0  0  0  0  0  0  0  0
   -5.1831    1.4861    1.3359 H   0  0  0  0  0  0  0  0  0  0  0  0
    0.2359   -1.6814    2.9603 C   0  0  0  0  0  0  0  0  0  0  0  0
   -1.0275   -2.0859    3.3399 N   0  0  0  0  0  0  0  0  0  0  0  0
    1.0277   -1.6227    4.0832 C   0  0  0  0  0  0  0  0  0  0  0  0
   -1.0809   -2.2345    4.6845 C   0  0  0  0  0  0  0  0  0  0  0  0
   -1.8037   -2.2370    2.7189 H   0  0  0  0  0  0  0  0  0  0  0  0
    0.2217   -1.9456    5.2005 C   0  0  0  0  0  0  0  0  0  0  0  0
    2.0700   -1.3773    4.0944 H   0  0  0  0  0  0  0  0  0  0  0  0
   -2.1388   -2.5851    5.3994 N   0  0  0  0  0  0  0  0  0  0  0  0
    0.3958   -2.0523    6.5783 C   0  0  0  0  0  0  0  0  0  0  0  0
   -1.9492   -2.6754    6.7058 C   0  0  0  0  0  0  0  0  0  0  0  0
   -0.7187   -2.4213    7.3086 C   0  0  0  0  0  0  0  0  0  0  0  0
    1.3454   -1.8591    7.0540 H   0  0  0  0  0  0  0  0  0  0  0  0
   -2.8097   -2.9616    7.2934 H   0  0  0  0  0  0  0  0  0  0  0  0
   -0.5855   -2.5926    9.2129 Br  0  0  0  0  0  0  0  0  0  0  0  0
  1  2  4  0  0  0  0
  2  3  4  0  0  0  0
  3  4  4  0  0  0  0
  4  5  4  0  0  0  0
  1  6  4  0  0  0  0
  5  6  4  0  0  0  0
  6  7  1  0  0  0  0
  5  8  1  0  0  0  0
  3  9  1  0  0  0  0
  2 10  1  0  0  0  0
 10 11  4  0  0  0  0
 11 12  4  0  0  0  0
 12 13  4  0  0  0  0
 13 14  4  0  0  0  0
 10 15  4  0  0  0  0
 14 15  4  0  0  0  0
 15 16  1  0  0  0  0
 13 17  1  0  0  0  0
 12 18  1  0  0  0  0
  1 19  1  0  0  0  0
 11 19  1  0  0  0  0
 19 20  1  0  0  0  0
 19 21  1  0  0  0  0
 21 22  1  0  0  0  0
 22 23  1  0  0  0  0
 23 24  1  0  0  0  0
 24 25  1  0  0  0  0
 24 26  1  0  0  0  0
 24 27  1  0  0  0  0
 23 28  1  0  0  0  0
 28 29  1  0  0  0  0
 28 30  1  0  0  0  0
 28 31  1  0  0  0  0
 23 32  1  0  0  0  0
 21 33  1  0  0  0  0
 32 33  1  0  0  0  0
 32 34  1  0  0  0  0
 34 35  1  0  0  0  0
 34 36  1  0  0  0  0
 34 37  1  0  0  0  0
 32 38  1  0  0  0  0
 38 39  1  0  0  0  0
 38 40  1  0  0  0  0
 38 41  1  0  0  0  0
 19 42  1  0  0  0  0
 42 43  1  0  0  0  0
 43 44  1  0  0  0  0
 44 45  1  0  0  0  0
 45 46  1  0  0  0  0
 45 47  1  0  0  0  0
 45 48  1  0  0  0  0
 44 49  1  0  0  0  0
 49 50  1  0  0  0  0
 49 51  1  0  0  0  0
 49 52  1  0  0  0  0
 44 53  1  0  0  0  0
 42 54  1  0  0  0  0
 53 54  1  0  0  0  0
 53 55  1  0  0  0  0
 55 56  1  0  0  0  0
 55 57  1  0  0  0  0
 55 58  1  0  0  0  0
 53 59  1  0  0  0  0
 59 60  1  0  0  0  0
 59 61  1  0  0  0  0
 59 62  1  0  0  0  0
 19 63  1  0  0  0  0
 63 64  1  0  0  0  0
 64 65  1  0  0  0  0
 65 66  1  0  0  0  0
 66 67  1  0  0  0  0
 66 68  1  0  0  0  0
 66 69  1  0  0  0  0
 65 70  1  0  0  0  0
 70 71  1  0  0  0  0
 70 72  1  0  0  0  0
 70 73  1  0  0  0  0
 65 74  1  0  0  0  0
 63 75  1  0  0  0  0
 74 75  1  0  0  0  0
 74 76  1  0  0  0  0
 76 77  1  0  0  0  0
 76 78  1  0  0  0  0
 76 79  1  0  0  0  0
 74 80  1  0  0  0  0
 80 81  1  0  0  0  0
 80 82  1  0  0  0  0
 80 83  1  0  0  0  0
  4 84  1  0  0  0  0
 14 85  1  0  0  0  0
 19 86  1  0  0  0  0
 20 86  1  0  0  0  0
 86 87  1  0  0  0  0
 86 88  2  0  0  0  0
 87 89  4  0  0  0  0
 87 90  1  0  0  0  0
 88 91  4  0  0  0  0
 89 91  1  0  0  0  0
 88 92  1  0  0  0  0
 89 93  4  0  0  0  0
 91 94  4  0  0  0  0
 93 95  4  0  0  0  0
 94 96  4  0  0  0  0
 95 96  4  0  0  0  0
 94 97  1  0  0  0  0
 95 98  1  0  0  0  0
 96 99  1  0  0  0  0
M  END
