
  xtb     01142214283D
 xtb: 6.4.1 (1a32961)
129137  0     0  0            999 V2000
   -0.8135   -1.9691   -0.5169 N   0  0  0  0  0  0  0  0  0  0  0  0
   -2.0799   -1.5352   -0.6698 C   0  0  0  0  0  0  0  0  0  0  0  0
   -2.9034   -2.0598   -1.6745 C   0  0  0  0  0  0  0  0  0  0  0  0
   -2.4238   -3.0363   -2.5189 C   0  0  0  0  0  0  0  0  0  0  0  0
   -1.1141   -3.4771   -2.3465 C   0  0  0  0  0  0  0  0  0  0  0  0
   -0.3601   -2.9113   -1.3402 C   0  0  0  0  0  0  0  0  0  0  0  0
    0.6630   -3.2161   -1.1807 H   0  0  0  0  0  0  0  0  0  0  0  0
   -0.6962   -4.2422   -2.9804 H   0  0  0  0  0  0  0  0  0  0  0  0
   -3.9126   -1.7038   -1.7988 H   0  0  0  0  0  0  0  0  0  0  0  0
   -2.5314   -0.5050    0.2562 C   0  0  0  0  0  0  0  0  0  0  0  0
   -1.6297   -0.0595    1.1552 N   0  0  0  0  0  0  0  0  0  0  0  0
   -2.0112    0.8641    2.0339 C   0  0  0  0  0  0  0  0  0  0  0  0
   -3.2790    1.4072    2.0729 C   0  0  0  0  0  0  0  0  0  0  0  0
   -4.2167    0.9693    1.1421 C   0  0  0  0  0  0  0  0  0  0  0  0
   -3.8356    0.0070    0.2331 C   0  0  0  0  0  0  0  0  0  0  0  0
   -4.5513   -0.3491   -0.4892 H   0  0  0  0  0  0  0  0  0  0  0  0
   -3.5309    2.1495    2.8131 H   0  0  0  0  0  0  0  0  0  0  0  0
   -1.2514    1.1783    2.7320 H   0  0  0  0  0  0  0  0  0  0  0  0
    0.4215   -0.8165    0.9133 Ir  0  0  0  0  0  0  0  0  0  0  0  0
    0.8726   -2.2303    1.5405 H   0  0  0  0  0  0  0  0  0  0  0  0
    0.4656    0.7219   -0.5114 B   0  0  0  0  0  0  0  0  0  0  0  0
   -0.5166    0.7725   -1.4878 O   0  0  0  0  0  0  0  0  0  0  0  0
   -0.5132    2.0552   -2.1190 C   0  0  0  0  0  0  0  0  0  0  0  0
   -0.7963    1.9017   -3.6115 C   0  0  0  0  0  0  0  0  0  0  0  0
   -0.1231    1.1802   -4.0633 H   0  0  0  0  0  0  0  0  0  0  0  0
   -0.6918    2.8613   -4.1114 H   0  0  0  0  0  0  0  0  0  0  0  0
   -1.8151    1.5457   -3.7457 H   0  0  0  0  0  0  0  0  0  0  0  0
   -1.6429    2.8697   -1.4712 C   0  0  0  0  0  0  0  0  0  0  0  0
   -1.7312    3.8530   -1.9236 H   0  0  0  0  0  0  0  0  0  0  0  0
   -2.5801    2.3324   -1.6053 H   0  0  0  0  0  0  0  0  0  0  0  0
   -1.4644    2.9679   -0.4021 H   0  0  0  0  0  0  0  0  0  0  0  0
    0.9078    2.6065   -1.7665 C   0  0  0  0  0  0  0  0  0  0  0  0
    1.2575    1.8444   -0.6034 O   0  0  0  0  0  0  0  0  0  0  0  0
    1.9536    2.2838   -2.8410 C   0  0  0  0  0  0  0  0  0  0  0  0
    1.9520    1.2152   -3.0427 H   0  0  0  0  0  0  0  0  0  0  0  0
    1.7653    2.8391   -3.7553 H   0  0  0  0  0  0  0  0  0  0  0  0
    2.9358    2.5528   -2.4586 H   0  0  0  0  0  0  0  0  0  0  0  0
    0.9566    4.0990   -1.4432 C   0  0  0  0  0  0  0  0  0  0  0  0
    0.3763    4.3246   -0.5536 H   0  0  0  0  0  0  0  0  0  0  0  0
    1.9878    4.3915   -1.2600 H   0  0  0  0  0  0  0  0  0  0  0  0
    0.5734    4.6753   -2.2814 H   0  0  0  0  0  0  0  0  0  0  0  0
    1.4313    0.6781    1.9773 B   0  0  0  0  0  0  0  0  0  0  0  0
    2.7866    0.8109    2.1358 O   0  0  0  0  0  0  0  0  0  0  0  0
    3.0995    2.0308    2.8183 C   0  0  0  0  0  0  0  0  0  0  0  0
    4.2148    1.7757    3.8306 C   0  0  0  0  0  0  0  0  0  0  0  0
    3.9513    0.9685    4.5054 H   0  0  0  0  0  0  0  0  0  0  0  0
    5.1165    1.4918    3.2947 H   0  0  0  0  0  0  0  0  0  0  0  0
    4.4158    2.6786    4.4006 H   0  0  0  0  0  0  0  0  0  0  0  0
    3.5915    3.0201    1.7549 C   0  0  0  0  0  0  0  0  0  0  0  0
    3.8113    3.9925    2.1854 H   0  0  0  0  0  0  0  0  0  0  0  0
    4.4963    2.6207    1.3037 H   0  0  0  0  0  0  0  0  0  0  0  0
    2.8389    3.1088    0.9758 H   0  0  0  0  0  0  0  0  0  0  0  0
    1.7216    2.4378    3.4438 C   0  0  0  0  0  0  0  0  0  0  0  0
    0.7843    1.6870    2.6604 O   0  0  0  0  0  0  0  0  0  0  0  0
    1.3845    3.9247    3.3480 C   0  0  0  0  0  0  0  0  0  0  0  0
    1.3269    4.2411    2.3117 H   0  0  0  0  0  0  0  0  0  0  0  0
    0.4178    4.1017    3.8132 H   0  0  0  0  0  0  0  0  0  0  0  0
    2.1357    4.5130    3.8678 H   0  0  0  0  0  0  0  0  0  0  0  0
    1.5610    1.9756    4.8983 C   0  0  0  0  0  0  0  0  0  0  0  0
    1.7365    0.9057    4.9723 H   0  0  0  0  0  0  0  0  0  0  0  0
    2.2392    2.5102    5.5560 H   0  0  0  0  0  0  0  0  0  0  0  0
    0.5386    2.1678    5.2156 H   0  0  0  0  0  0  0  0  0  0  0  0
    2.2782   -1.3309    0.1741 B   0  0  0  0  0  0  0  0  0  0  0  0
    3.4266   -1.6487    0.8691 O   0  0  0  0  0  0  0  0  0  0  0  0
    4.5410   -1.7112   -0.0319 C   0  0  0  0  0  0  0  0  0  0  0  0
    5.2525   -0.3573    0.0552 C   0  0  0  0  0  0  0  0  0  0  0  0
    4.5512    0.4318   -0.2033 H   0  0  0  0  0  0  0  0  0  0  0  0
    5.5624   -0.2004    1.0849 H   0  0  0  0  0  0  0  0  0  0  0  0
    6.1241   -0.3232   -0.5915 H   0  0  0  0  0  0  0  0  0  0  0  0
    5.4935   -2.8226    0.4027 C   0  0  0  0  0  0  0  0  0  0  0  0
    5.9490   -2.5492    1.3504 H   0  0  0  0  0  0  0  0  0  0  0  0
    6.2768   -2.9526   -0.3388 H   0  0  0  0  0  0  0  0  0  0  0  0
    4.9659   -3.7604    0.5416 H   0  0  0  0  0  0  0  0  0  0  0  0
    3.8440   -1.9367   -1.4156 C   0  0  0  0  0  0  0  0  0  0  0  0
    2.5173   -1.4403   -1.1806 O   0  0  0  0  0  0  0  0  0  0  0  0
    4.4689   -1.1790   -2.5849 C   0  0  0  0  0  0  0  0  0  0  0  0
    5.5097   -1.4665   -2.7055 H   0  0  0  0  0  0  0  0  0  0  0  0
    3.9284   -1.4239   -3.4961 H   0  0  0  0  0  0  0  0  0  0  0  0
    4.4015   -0.1076   -2.4289 H   0  0  0  0  0  0  0  0  0  0  0  0
    3.7182   -3.4206   -1.7869 C   0  0  0  0  0  0  0  0  0  0  0  0
    3.2721   -3.9775   -0.9668 H   0  0  0  0  0  0  0  0  0  0  0  0
    3.0671   -3.5070   -2.6539 H   0  0  0  0  0  0  0  0  0  0  0  0
    4.6876   -3.8441   -2.0311 H   0  0  0  0  0  0  0  0  0  0  0  0
   -3.0503   -3.4478   -3.2957 H   0  0  0  0  0  0  0  0  0  0  0  0
   -5.2196    1.3690    1.1329 H   0  0  0  0  0  0  0  0  0  0  0  0
    0.2359   -1.6814    2.9603 C   0  0  0  0  0  0  0  0  0  0  0  0
   -1.0199   -1.9849    3.4551 C   0  0  0  0  0  0  0  0  0  0  0  0
    1.2864   -1.7646    3.8845 C   0  0  0  0  0  0  0  0  0  0  0  0
   -1.2386   -2.2551    4.8140 C   0  0  0  0  0  0  0  0  0  0  0  0
   -1.8770   -2.0258    2.7981 H   0  0  0  0  0  0  0  0  0  0  0  0
    2.6267   -1.6401    3.6778 N   0  0  0  0  0  0  0  0  0  0  0  0
    1.0915   -2.0851    5.2539 C   0  0  0  0  0  0  0  0  0  0  0  0
   -0.2068   -2.3101    5.7202 C   0  0  0  0  0  0  0  0  0  0  0  0
   -2.2507   -2.4500    5.1427 H   0  0  0  0  0  0  0  0  0  0  0  0
    3.2801   -1.8627    4.8468 C   0  0  0  0  0  0  0  0  0  0  0  0
    3.0366   -1.4047    2.7823 H   0  0  0  0  0  0  0  0  0  0  0  0
    2.3871   -2.1391    5.8492 C   0  0  0  0  0  0  0  0  0  0  0  0
   -0.3952   -2.5426    6.7589 H   0  0  0  0  0  0  0  0  0  0  0  0
    4.3509   -1.8180    4.9001 H   0  0  0  0  0  0  0  0  0  0  0  0
    2.7162   -2.5589    7.2446 C   0  0  0  0  0  0  0  0  0  0  0  0
    3.1700   -4.0349    7.2481 C   0  0  0  0  0  0  0  0  0  0  0  0
    1.8384   -2.4554    7.8841 H   0  0  0  0  0  0  0  0  0  0  0  0
    3.5265   -1.9560    7.6557 H   0  0  0  0  0  0  0  0  0  0  0  0
    2.1792   -4.8699    6.6196 N   0  0  0  0  0  0  0  0  0  0  0  0
    3.4428   -4.5012    8.6733 C   0  0  0  0  0  0  0  0  0  0  0  0
    4.0975   -4.1390    6.6755 H   0  0  0  0  0  0  0  0  0  0  0  0
    2.5098   -5.9799    5.9290 C   0  0  0  0  0  0  0  0  0  0  0  0
    1.2046   -4.6896    6.8017 H   0  0  0  0  0  0  0  0  0  0  0  0
    2.7088   -5.2121    9.3173 O   0  0  0  0  0  0  0  0  0  0  0  0
    4.5893   -4.0093    9.1275 O   0  0  0  0  0  0  0  0  0  0  0  0
    3.6544   -6.3298    5.7202 O   0  0  0  0  0  0  0  0  0  0  0  0
    1.4006   -6.6021    5.5048 O   0  0  0  0  0  0  0  0  0  0  0  0
    4.9683   -4.3577   10.4616 C   0  0  0  0  0  0  0  0  0  0  0  0
    1.4699   -7.7987    4.6798 C   0  0  0  0  0  0  0  0  0  0  0  0
    5.9400   -3.8991   10.6202 H   0  0  0  0  0  0  0  0  0  0  0  0
    5.0280   -5.4425   10.5623 H   0  0  0  0  0  0  0  0  0  0  0  0
    4.2343   -3.9741   11.1719 H   0  0  0  0  0  0  0  0  0  0  0  0
    2.1705   -8.9280    5.4356 C   0  0  0  0  0  0  0  0  0  0  0  0
    0.0028   -8.1519    4.4278 C   0  0  0  0  0  0  0  0  0  0  0  0
    2.1810   -7.4942    3.3612 C   0  0  0  0  0  0  0  0  0  0  0  0
    1.6818   -9.0958    6.3929 H   0  0  0  0  0  0  0  0  0  0  0  0
    3.2112   -8.6718    5.6152 H   0  0  0  0  0  0  0  0  0  0  0  0
    2.1261   -9.8408    4.8489 H   0  0  0  0  0  0  0  0  0  0  0  0
   -0.5006   -8.3425    5.3717 H   0  0  0  0  0  0  0  0  0  0  0  0
   -0.0608   -9.0373    3.8032 H   0  0  0  0  0  0  0  0  0  0  0  0
   -0.4963   -7.3248    3.9305 H   0  0  0  0  0  0  0  0  0  0  0  0
    3.2146   -7.2154    3.5479 H   0  0  0  0  0  0  0  0  0  0  0  0
    1.6827   -6.6740    2.8501 H   0  0  0  0  0  0  0  0  0  0  0  0
    2.1613   -8.3753    2.7265 H   0  0  0  0  0  0  0  0  0  0  0  0
  1  2  4  0  0  0  0
  2  3  4  0  0  0  0
  3  4  4  0  0  0  0
  4  5  4  0  0  0  0
  1  6  4  0  0  0  0
  5  6  4  0  0  0  0
  6  7  1  0  0  0  0
  5  8  1  0  0  0  0
  3  9  1  0  0  0  0
  2 10  1  0  0  0  0
 10 11  4  0  0  0  0
 11 12  4  0  0  0  0
 12 13  4  0  0  0  0
 13 14  4  0  0  0  0
 10 15  4  0  0  0  0
 14 15  4  0  0  0  0
 15 16  1  0  0  0  0
 13 17  1  0  0  0  0
 12 18  1  0  0  0  0
  1 19  1  0  0  0  0
 11 19  1  0  0  0  0
 19 20  1  0  0  0  0
 19 21  1  0  0  0  0
 21 22  1  0  0  0  0
 22 23  1  0  0  0  0
 23 24  1  0  0  0  0
 24 25  1  0  0  0  0
 24 26  1  0  0  0  0
 24 27  1  0  0  0  0
 23 28  1  0  0  0  0
 28 29  1  0  0  0  0
 28 30  1  0  0  0  0
 28 31  1  0  0  0  0
 23 32  1  0  0  0  0
 21 33  1  0  0  0  0
 32 33  1  0  0  0  0
 32 34  1  0  0  0  0
 34 35  1  0  0  0  0
 34 36  1  0  0  0  0
 34 37  1  0  0  0  0
 32 38  1  0  0  0  0
 38 39  1  0  0  0  0
 38 40  1  0  0  0  0
 38 41  1  0  0  0  0
 19 42  1  0  0  0  0
 42 43  1  0  0  0  0
 43 44  1  0  0  0  0
 44 45  1  0  0  0  0
 45 46  1  0  0  0  0
 45 47  1  0  0  0  0
 45 48  1  0  0  0  0
 44 49  1  0  0  0  0
 49 50  1  0  0  0  0
 49 51  1  0  0  0  0
 49 52  1  0  0  0  0
 44 53  1  0  0  0  0
 42 54  1  0  0  0  0
 53 54  1  0  0  0  0
 53 55  1  0  0  0  0
 55 56  1  0  0  0  0
 55 57  1  0  0  0  0
 55 58  1  0  0  0  0
 53 59  1  0  0  0  0
 59 60  1  0  0  0  0
 59 61  1  0  0  0  0
 59 62  1  0  0  0  0
 19 63  1  0  0  0  0
 63 64  1  0  0  0  0
 64 65  1  0  0  0  0
 65 66  1  0  0  0  0
 66 67  1  0  0  0  0
 66 68  1  0  0  0  0
 66 69  1  0  0  0  0
 65 70  1  0  0  0  0
 70 71  1  0  0  0  0
 70 72  1  0  0  0  0
 70 73  1  0  0  0  0
 65 74  1  0  0  0  0
 63 75  1  0  0  0  0
 74 75  1  0  0  0  0
 74 76  1  0  0  0  0
 76 77  1  0  0  0  0
 76 78  1  0  0  0  0
 76 79  1  0  0  0  0
 74 80  1  0  0  0  0
 80 81  1  0  0  0  0
 80 82  1  0  0  0  0
 80 83  1  0  0  0  0
  4 84  1  0  0  0  0
 14 85  1  0  0  0  0
 19 86  1  0  0  0  0
 20 86  1  0  0  0  0
 86 87  4  0  0  0  0
 86 88  4  0  0  0  0
 87 89  4  0  0  0  0
 87 90  1  0  0  0  0
 88 91  1  0  0  0  0
 88 92  4  0  0  0  0
 89 93  2  0  0  0  0
 92 93  4  0  0  0  0
 89 94  1  0  0  0  0
 91 95  4  0  0  0  0
 91 96  1  0  0  0  0
 92 97  4  0  0  0  0
 95 97  2  0  0  0  0
 93 98  1  0  0  0  0
 95 99  1  0  0  0  0
 97100  1  0  0  0  0
100101  1  0  0  0  0
100102  1  0  0  0  0
100103  1  0  0  0  0
101104  1  0  0  0  0
101105  1  0  0  0  0
101106  1  0  0  0  0
104107  4  0  0  0  0
104108  1  0  0  0  0
105109  2  0  0  0  0
105110  1  0  0  0  0
107111  2  0  0  0  0
107112  1  0  0  0  0
110113  1  0  0  0  0
112114  1  0  0  0  0
113115  1  0  0  0  0
113116  1  0  0  0  0
113117  1  0  0  0  0
114118  1  0  0  0  0
114119  1  0  0  0  0
114120  1  0  0  0  0
118121  1  0  0  0  0
118122  1  0  0  0  0
118123  1  0  0  0  0
119124  1  0  0  0  0
119125  1  0  0  0  0
119126  1  0  0  0  0
120127  1  0  0  0  0
120128  1  0  0  0  0
120129  1  0  0  0  0
M  END
