   10
Created with kallisto
C      0.6880    1.2260    0.0015
C      1.4330    0.0516    0.0010
C     -0.6942    1.1256    0.0022
C      0.7738   -1.1733    0.0033
H      2.5185    0.0904   -0.0011
N     -1.3624   -0.0485    0.0055
H     -1.3198    2.0134    0.0001
C     -0.6120   -1.1719    0.0069
H      1.3254   -2.1063    0.0027
H     -1.1726   -2.1023    0.0115
