   16

C          1.56783       -1.34110       -0.00194
C          0.37113       -0.60487       -0.00271
C          0.36648        0.79156       -0.00144
N         -0.88661        1.38162       -0.00170
C         -1.81757        0.45465       -0.00241
S         -1.25725       -1.16718       -0.00511
C         -3.27787        0.74151       -0.00042
C          1.59878        1.47528        0.00103
C          2.79528        0.75229        0.00296
C          2.77743       -0.63891        0.00146
H          1.55539       -2.42699       -0.00450
H         -3.45233        1.82249       -0.00393
H         -3.75560        0.32716        0.89275
H         -3.76002        0.32048       -0.88799
H          3.74329        1.28464        0.00594
H          3.71605       -1.18923        0.00323
