
  xtb     10082107323D
 xtb: 6.4.0 (f63f532)
105112  0     0  0            999 V2000
   -0.9815   -1.9849   -0.3418 N   0  0  0  0  0  0  0  0  0  0  0  0
   -2.2270   -1.4887   -0.4695 C   0  0  0  0  0  0  0  0  0  0  0  0
   -3.1497   -2.0793   -1.3437 C   0  0  0  0  0  0  0  0  0  0  0  0
   -2.7795   -3.1713   -2.0967 C   0  0  0  0  0  0  0  0  0  0  0  0
   -1.4835   -3.6649   -1.9631 C   0  0  0  0  0  0  0  0  0  0  0  0
   -0.6347   -3.0383   -1.0754 C   0  0  0  0  0  0  0  0  0  0  0  0
    0.3775   -3.3904   -0.9330 H   0  0  0  0  0  0  0  0  0  0  0  0
   -1.1491   -4.5161   -2.5332 H   0  0  0  0  0  0  0  0  0  0  0  0
   -4.1493   -1.6868   -1.4331 H   0  0  0  0  0  0  0  0  0  0  0  0
   -2.5402   -0.3146    0.3329 C   0  0  0  0  0  0  0  0  0  0  0  0
   -1.5608    0.1378    1.1455 N   0  0  0  0  0  0  0  0  0  0  0  0
   -1.7984    1.2131    1.8950 C   0  0  0  0  0  0  0  0  0  0  0  0
   -2.9949    1.8977    1.8878 C   0  0  0  0  0  0  0  0  0  0  0  0
   -4.0116    1.4512    1.0458 C   0  0  0  0  0  0  0  0  0  0  0  0
   -3.7763    0.3415    0.2643 C   0  0  0  0  0  0  0  0  0  0  0  0
   -4.5486   -0.0136   -0.3977 H   0  0  0  0  0  0  0  0  0  0  0  0
   -3.1357    2.7554    2.5256 H   0  0  0  0  0  0  0  0  0  0  0  0
   -0.9794    1.5241    2.5258 H   0  0  0  0  0  0  0  0  0  0  0  0
    0.4215   -0.8165    0.9133 Ir  0  0  0  0  0  0  0  0  0  0  0  0
    0.8726   -2.2303    1.5405 H   0  0  0  0  0  0  0  0  0  0  0  0
    0.3352    0.6422   -0.5735 B   0  0  0  0  0  0  0  0  0  0  0  0
   -0.2535    0.3572   -1.7901 O   0  0  0  0  0  0  0  0  0  0  0  0
   -0.4125    1.5610   -2.5504 C   0  0  0  0  0  0  0  0  0  0  0  0
   -0.0907    1.2897   -4.0175 C   0  0  0  0  0  0  0  0  0  0  0  0
    0.8728    0.8004   -4.1140 H   0  0  0  0  0  0  0  0  0  0  0  0
   -0.0864    2.2214   -4.5772 H   0  0  0  0  0  0  0  0  0  0  0  0
   -0.8499    0.6321   -4.4345 H   0  0  0  0  0  0  0  0  0  0  0  0
   -1.8830    1.9855   -2.4266 C   0  0  0  0  0  0  0  0  0  0  0  0
   -2.0879    2.8639   -3.0315 H   0  0  0  0  0  0  0  0  0  0  0  0
   -2.5130    1.1656   -2.7665 H   0  0  0  0  0  0  0  0  0  0  0  0
   -2.1298    2.1923   -1.3869 H   0  0  0  0  0  0  0  0  0  0  0  0
    0.5625    2.5478   -1.8299 C   0  0  0  0  0  0  0  0  0  0  0  0
    0.6621    1.9791   -0.5167 O   0  0  0  0  0  0  0  0  0  0  0  0
    1.9718    2.5167   -2.4332 C   0  0  0  0  0  0  0  0  0  0  0  0
    2.3384    1.4927   -2.4295 H   0  0  0  0  0  0  0  0  0  0  0  0
    1.9805    2.9236   -3.4402 H   0  0  0  0  0  0  0  0  0  0  0  0
    2.6337    3.1080   -1.8054 H   0  0  0  0  0  0  0  0  0  0  0  0
    0.0743    3.9920   -1.7403 C   0  0  0  0  0  0  0  0  0  0  0  0
   -0.8354    4.0667   -1.1520 H   0  0  0  0  0  0  0  0  0  0  0  0
    0.8391    4.5978   -1.2601 H   0  0  0  0  0  0  0  0  0  0  0  0
   -0.1066    4.3845   -2.7377 H   0  0  0  0  0  0  0  0  0  0  0  0
    1.6200    0.6411    1.8305 B   0  0  0  0  0  0  0  0  0  0  0  0
    2.8897    1.0455    1.5216 O   0  0  0  0  0  0  0  0  0  0  0  0
    3.2531    2.2231    2.2567 C   0  0  0  0  0  0  0  0  0  0  0  0
    4.6357    2.0156    2.8789 C   0  0  0  0  0  0  0  0  0  0  0  0
    4.6731    1.0920    3.4475 H   0  0  0  0  0  0  0  0  0  0  0  0
    5.3732    1.9471    2.0835 H   0  0  0  0  0  0  0  0  0  0  0  0
    4.8910    2.8540    3.5199 H   0  0  0  0  0  0  0  0  0  0  0  0
    3.3281    3.3685    1.2410 C   0  0  0  0  0  0  0  0  0  0  0  0
    3.5562    4.3136    1.7245 H   0  0  0  0  0  0  0  0  0  0  0  0
    4.1124    3.1399    0.5230 H   0  0  0  0  0  0  0  0  0  0  0  0
    2.3883    3.4348    0.7005 H   0  0  0  0  0  0  0  0  0  0  0  0
    2.0820    2.3798    3.2976 C   0  0  0  0  0  0  0  0  0  0  0  0
    1.1235    1.4018    2.8671 O   0  0  0  0  0  0  0  0  0  0  0  0
    1.3983    3.7495    3.2895 C   0  0  0  0  0  0  0  0  0  0  0  0
    0.9666    3.9583    2.3157 H   0  0  0  0  0  0  0  0  0  0  0  0
    0.5966    3.7444    4.0246 H   0  0  0  0  0  0  0  0  0  0  0  0
    2.1065    4.5298    3.5520 H   0  0  0  0  0  0  0  0  0  0  0  0
    2.4757    2.0435    4.7405 C   0  0  0  0  0  0  0  0  0  0  0  0
    2.9483    1.0694    4.7991 H   0  0  0  0  0  0  0  0  0  0  0  0
    3.1488    2.7954    5.1404 H   0  0  0  0  0  0  0  0  0  0  0  0
    1.5736    2.0181    5.3479 H   0  0  0  0  0  0  0  0  0  0  0  0
    2.2782   -1.3309    0.1741 B   0  0  0  0  0  0  0  0  0  0  0  0
    3.1755   -2.2439    0.6737 O   0  0  0  0  0  0  0  0  0  0  0  0
    4.3933   -2.2082   -0.0843 C   0  0  0  0  0  0  0  0  0  0  0  0
    5.3849   -1.3582    0.7151 C   0  0  0  0  0  0  0  0  0  0  0  0
    4.9553   -0.3743    0.8807 H   0  0  0  0  0  0  0  0  0  0  0  0
    5.5320   -1.8227    1.6866 H   0  0  0  0  0  0  0  0  0  0  0  0
    6.3398   -1.2788    0.2057 H   0  0  0  0  0  0  0  0  0  0  0  0
    4.9400   -3.6263   -0.2338 C   0  0  0  0  0  0  0  0  0  0  0  0
    5.2115   -3.9990    0.7501 H   0  0  0  0  0  0  0  0  0  0  0  0
    5.8232   -3.6197   -0.8664 H   0  0  0  0  0  0  0  0  0  0  0  0
    4.1973   -4.2954   -0.6557 H   0  0  0  0  0  0  0  0  0  0  0  0
    3.9428   -1.5202   -1.4187 C   0  0  0  0  0  0  0  0  0  0  0  0
    2.7325   -0.8488   -1.0348 O   0  0  0  0  0  0  0  0  0  0  0  0
    4.9308   -0.5006   -1.9811 C   0  0  0  0  0  0  0  0  0  0  0  0
    5.8938   -0.9698   -2.1614 H   0  0  0  0  0  0  0  0  0  0  0  0
    4.5471   -0.1139   -2.9222 H   0  0  0  0  0  0  0  0  0  0  0  0
    5.0488    0.3307   -1.2947 H   0  0  0  0  0  0  0  0  0  0  0  0
    3.5746   -2.5246   -2.5194 C   0  0  0  0  0  0  0  0  0  0  0  0
    2.8557   -3.2474   -2.1430 H   0  0  0  0  0  0  0  0  0  0  0  0
    3.1086   -1.9857   -3.3410 H   0  0  0  0  0  0  0  0  0  0  0  0
    4.4567   -3.0397   -2.8869 H   0  0  0  0  0  0  0  0  0  0  0  0
   -3.4795   -3.6326   -2.7768 H   0  0  0  0  0  0  0  0  0  0  0  0
   -4.9617    1.9621    1.0048 H   0  0  0  0  0  0  0  0  0  0  0  0
    0.2359   -1.6814    2.9603 C   0  0  0  0  0  0  0  0  0  0  0  0
   -1.0981   -1.9630    3.2579 C   0  0  0  0  0  0  0  0  0  0  0  0
    1.1225   -1.6452    4.0327 C   0  0  0  0  0  0  0  0  0  0  0  0
   -1.5327   -2.0656    4.5658 C   0  0  0  0  0  0  0  0  0  0  0  0
   -1.8122   -2.1141    2.4610 H   0  0  0  0  0  0  0  0  0  0  0  0
    2.9943   -1.5662    3.6510 Br  0  0  0  0  0  0  0  0  0  0  0  0
    0.7183   -1.7278    5.3665 C   0  0  0  0  0  0  0  0  0  0  0  0
   -0.6367   -1.9240    5.6085 C   0  0  0  0  0  0  0  0  0  0  0  0
   -2.5751   -2.2642    4.7726 H   0  0  0  0  0  0  0  0  0  0  0  0
    1.6949   -1.6780    6.5183 C   0  0  0  0  0  0  0  0  0  0  0  0
   -0.9898   -2.0007    6.6240 H   0  0  0  0  0  0  0  0  0  0  0  0
    1.1305   -0.9768    7.7545 C   0  0  0  0  0  0  0  0  0  0  0  0
    2.1411   -3.1028    6.8641 C   0  0  0  0  0  0  0  0  0  0  0  0
    2.5779   -1.1197    6.1963 H   0  0  0  0  0  0  0  0  0  0  0  0
    0.3935   -1.5941    8.2622 H   0  0  0  0  0  0  0  0  0  0  0  0
    0.6690   -0.0306    7.4817 H   0  0  0  0  0  0  0  0  0  0  0  0
    1.9382   -0.7775    8.4548 H   0  0  0  0  0  0  0  0  0  0  0  0
    1.2861   -3.7073    7.1599 H   0  0  0  0  0  0  0  0  0  0  0  0
    2.8550   -3.0801    7.6831 H   0  0  0  0  0  0  0  0  0  0  0  0
    2.6178   -3.5661    6.0042 H   0  0  0  0  0  0  0  0  0  0  0  0
  1  2  4  0  0  0  0
  2  3  4  0  0  0  0
  3  4  4  0  0  0  0
  4  5  4  0  0  0  0
  1  6  4  0  0  0  0
  5  6  4  0  0  0  0
  6  7  1  0  0  0  0
  5  8  1  0  0  0  0
  3  9  1  0  0  0  0
  2 10  1  0  0  0  0
 10 11  4  0  0  0  0
 11 12  4  0  0  0  0
 12 13  4  0  0  0  0
 13 14  4  0  0  0  0
 10 15  4  0  0  0  0
 14 15  4  0  0  0  0
 15 16  1  0  0  0  0
 13 17  1  0  0  0  0
 12 18  1  0  0  0  0
  1 19  1  0  0  0  0
 11 19  1  0  0  0  0
 19 20  1  0  0  0  0
 19 21  1  0  0  0  0
 21 22  1  0  0  0  0
 22 23  1  0  0  0  0
 23 24  1  0  0  0  0
 24 25  1  0  0  0  0
 24 26  1  0  0  0  0
 24 27  1  0  0  0  0
 23 28  1  0  0  0  0
 28 29  1  0  0  0  0
 28 30  1  0  0  0  0
 28 31  1  0  0  0  0
 23 32  1  0  0  0  0
 21 33  1  0  0  0  0
 32 33  1  0  0  0  0
 32 34  1  0  0  0  0
 34 35  1  0  0  0  0
 34 36  1  0  0  0  0
 34 37  1  0  0  0  0
 32 38  1  0  0  0  0
 38 39  1  0  0  0  0
 38 40  1  0  0  0  0
 38 41  1  0  0  0  0
 19 42  1  0  0  0  0
 42 43  1  0  0  0  0
 43 44  1  0  0  0  0
 44 45  1  0  0  0  0
 45 46  1  0  0  0  0
 45 47  1  0  0  0  0
 45 48  1  0  0  0  0
 44 49  1  0  0  0  0
 49 50  1  0  0  0  0
 49 51  1  0  0  0  0
 49 52  1  0  0  0  0
 44 53  1  0  0  0  0
 42 54  1  0  0  0  0
 53 54  1  0  0  0  0
 53 55  1  0  0  0  0
 55 56  1  0  0  0  0
 55 57  1  0  0  0  0
 55 58  1  0  0  0  0
 53 59  1  0  0  0  0
 59 60  1  0  0  0  0
 59 61  1  0  0  0  0
 59 62  1  0  0  0  0
 19 63  1  0  0  0  0
 63 64  1  0  0  0  0
 64 65  1  0  0  0  0
 65 66  1  0  0  0  0
 66 67  1  0  0  0  0
 66 68  1  0  0  0  0
 66 69  1  0  0  0  0
 65 70  1  0  0  0  0
 70 71  1  0  0  0  0
 70 72  1  0  0  0  0
 70 73  1  0  0  0  0
 65 74  1  0  0  0  0
 63 75  1  0  0  0  0
 74 75  1  0  0  0  0
 74 76  1  0  0  0  0
 76 77  1  0  0  0  0
 76 78  1  0  0  0  0
 76 79  1  0  0  0  0
 74 80  1  0  0  0  0
 80 81  1  0  0  0  0
 80 82  1  0  0  0  0
 80 83  1  0  0  0  0
  4 84  1  0  0  0  0
 14 85  1  0  0  0  0
 19 86  1  0  0  0  0
 20 86  1  0  0  0  0
 86 87  4  0  0  0  0
 86 88  4  0  0  0  0
 87 89  4  0  0  0  0
 87 90  1  0  0  0  0
 88 91  1  0  0  0  0
 88 92  4  0  0  0  0
 89 93  4  0  0  0  0
 92 93  4  0  0  0  0
 89 94  1  0  0  0  0
 92 95  1  0  0  0  0
 93 96  1  0  0  0  0
 95 97  1  0  0  0  0
 95 98  1  0  0  0  0
 95 99  1  0  0  0  0
 97100  1  0  0  0  0
 97101  1  0  0  0  0
 97102  1  0  0  0  0
 98103  1  0  0  0  0
 98104  1  0  0  0  0
 98105  1  0  0  0  0
M  END
