   20

C         -0.87016        1.44078       -0.00037
C          0.27623        0.65827        0.00082
C          0.28384       -0.72619        0.00155
N          1.57782       -1.18397        0.00196
C          2.29762       -0.07831        0.00184
O          1.57212        1.08475        0.00090
C          3.76597        0.06694        0.00184
C         -0.93817       -1.40887        0.00132
C         -2.12794       -0.66134        0.00046
O         -3.26708       -1.42327        0.00128
C         -4.50893       -0.73036        0.00111
C         -2.08709        0.74121       -0.00067
H         -0.82373        2.52225       -0.00078
H          4.24983       -0.91439        0.00142
H          4.09783        0.61182        0.89072
H          4.09786        0.61258       -0.88618
H         -5.30934       -1.47637        0.00791
H         -4.62310       -0.12742       -0.90581
H         -4.61846       -0.11674        0.90143
H         -2.99876        1.33150       -0.00180
