   10
Created with kallisto
C      1.1744    1.5190    0.0624
C      0.0185    0.7399    0.0365
C      2.4218    0.8990    0.0187
Cl    -1.5127    1.5265    0.0862
C      0.1712   -0.6412   -0.0298
C      2.4686   -0.4849   -0.0506
H      3.3365    1.4822    0.0376
Cl    -1.1576   -1.7346   -0.0601
N      1.3714   -1.2707   -0.0747
H      3.4179   -1.0127   -0.0893
