
  xtb     01142213063D
 xtb: 6.4.1 (1a32961)
105113  0     0  0            999 V2000
   -0.9519   -2.0242   -0.3806 N   0  0  0  0  0  0  0  0  0  0  0  0
   -2.1946   -1.5267   -0.5140 C   0  0  0  0  0  0  0  0  0  0  0  0
   -3.0394   -1.9614   -1.5421 C   0  0  0  0  0  0  0  0  0  0  0  0
   -2.6025   -2.9239   -2.4263 C   0  0  0  0  0  0  0  0  0  0  0  0
   -1.3190   -3.4397   -2.2684 C   0  0  0  0  0  0  0  0  0  0  0  0
   -0.5405   -2.9527   -1.2390 C   0  0  0  0  0  0  0  0  0  0  0  0
    0.4642   -3.3178   -1.0802 H   0  0  0  0  0  0  0  0  0  0  0  0
   -0.9374   -4.1967   -2.9339 H   0  0  0  0  0  0  0  0  0  0  0  0
   -4.0232   -1.5373   -1.6594 H   0  0  0  0  0  0  0  0  0  0  0  0
   -2.5888   -0.5037    0.4488 C   0  0  0  0  0  0  0  0  0  0  0  0
   -1.6143   -0.0139    1.2410 N   0  0  0  0  0  0  0  0  0  0  0  0
   -1.9217    0.9302    2.1251 C   0  0  0  0  0  0  0  0  0  0  0  0
   -3.1961    1.4375    2.2835 C   0  0  0  0  0  0  0  0  0  0  0  0
   -4.2166    0.9330    1.4823 C   0  0  0  0  0  0  0  0  0  0  0  0
   -3.9060   -0.0421    0.5587 C   0  0  0  0  0  0  0  0  0  0  0  0
   -4.6839   -0.4547   -0.0624 H   0  0  0  0  0  0  0  0  0  0  0  0
   -3.3911    2.1989    3.0214 H   0  0  0  0  0  0  0  0  0  0  0  0
   -1.0950    1.2884    2.7197 H   0  0  0  0  0  0  0  0  0  0  0  0
    0.4215   -0.8165    0.9133 Ir  0  0  0  0  0  0  0  0  0  0  0  0
    0.8726   -2.2303    1.5405 H   0  0  0  0  0  0  0  0  0  0  0  0
    0.3145    0.6193   -0.5993 B   0  0  0  0  0  0  0  0  0  0  0  0
   -0.4065    0.3561   -1.7532 O   0  0  0  0  0  0  0  0  0  0  0  0
   -0.6030    1.5656   -2.4934 C   0  0  0  0  0  0  0  0  0  0  0  0
   -0.4784    1.2834   -3.9883 C   0  0  0  0  0  0  0  0  0  0  0  0
    0.4441    0.7553   -4.2049 H   0  0  0  0  0  0  0  0  0  0  0  0
   -0.5068    2.2150   -4.5476 H   0  0  0  0  0  0  0  0  0  0  0  0
   -1.3103    0.6581   -4.3033 H   0  0  0  0  0  0  0  0  0  0  0  0
   -2.0276    2.0511   -2.1870 C   0  0  0  0  0  0  0  0  0  0  0  0
   -2.2677    2.9477   -2.7506 H   0  0  0  0  0  0  0  0  0  0  0  0
   -2.7291    1.2637   -2.4565 H   0  0  0  0  0  0  0  0  0  0  0  0
   -2.1338    2.2469   -1.1217 H   0  0  0  0  0  0  0  0  0  0  0  0
    0.4953    2.5071   -1.9010 C   0  0  0  0  0  0  0  0  0  0  0  0
    0.7309    1.9301   -0.6095 O   0  0  0  0  0  0  0  0  0  0  0  0
    1.8170    2.4206   -2.6739 C   0  0  0  0  0  0  0  0  0  0  0  0
    2.1394    1.3828   -2.7116 H   0  0  0  0  0  0  0  0  0  0  0  0
    1.7172    2.8276   -3.6759 H   0  0  0  0  0  0  0  0  0  0  0  0
    2.5755    2.9842   -2.1359 H   0  0  0  0  0  0  0  0  0  0  0  0
    0.0822    3.9701   -1.7527 C   0  0  0  0  0  0  0  0  0  0  0  0
   -0.7391    4.0777   -1.0508 H   0  0  0  0  0  0  0  0  0  0  0  0
    0.9264    4.5429   -1.3761 H   0  0  0  0  0  0  0  0  0  0  0  0
   -0.2107    4.3741   -2.7185 H   0  0  0  0  0  0  0  0  0  0  0  0
    1.5927    0.6839    1.7857 B   0  0  0  0  0  0  0  0  0  0  0  0
    2.9268    0.9472    1.6360 O   0  0  0  0  0  0  0  0  0  0  0  0
    3.2593    2.2179    2.2103 C   0  0  0  0  0  0  0  0  0  0  0  0
    4.5269    2.0704    3.0527 C   0  0  0  0  0  0  0  0  0  0  0  0
    4.3995    1.2946    3.7995 H   0  0  0  0  0  0  0  0  0  0  0  0
    5.3515    1.7876    2.4032 H   0  0  0  0  0  0  0  0  0  0  0  0
    4.7703    3.0116    3.5376 H   0  0  0  0  0  0  0  0  0  0  0  0
    3.5368    3.1656    1.0371 C   0  0  0  0  0  0  0  0  0  0  0  0
    3.7559    4.1724    1.3795 H   0  0  0  0  0  0  0  0  0  0  0  0
    4.3912    2.7873    0.4807 H   0  0  0  0  0  0  0  0  0  0  0  0
    2.6772    3.1657    0.3734 H   0  0  0  0  0  0  0  0  0  0  0  0
    1.9693    2.5959    3.0268 C   0  0  0  0  0  0  0  0  0  0  0  0
    0.9984    1.6523    2.5579 O   0  0  0  0  0  0  0  0  0  0  0  0
    1.4381    4.0067    2.7650 C   0  0  0  0  0  0  0  0  0  0  0  0
    1.1687    4.1239    1.7205 H   0  0  0  0  0  0  0  0  0  0  0  0
    0.5454    4.1638    3.3659 H   0  0  0  0  0  0  0  0  0  0  0  0
    2.1803    4.7500    3.0420 H   0  0  0  0  0  0  0  0  0  0  0  0
    2.1144    2.3877    4.5389 C   0  0  0  0  0  0  0  0  0  0  0  0
    2.3828    1.3554    4.7401 H   0  0  0  0  0  0  0  0  0  0  0  0
    2.8571    3.0595    4.9578 H   0  0  0  0  0  0  0  0  0  0  0  0
    1.1551    2.5841    5.0128 H   0  0  0  0  0  0  0  0  0  0  0  0
    2.2782   -1.3309    0.1741 B   0  0  0  0  0  0  0  0  0  0  0  0
    3.1800   -2.2617    0.6486 O   0  0  0  0  0  0  0  0  0  0  0  0
    4.4160   -2.1715   -0.0771 C   0  0  0  0  0  0  0  0  0  0  0  0
    5.3864   -1.3697    0.7965 C   0  0  0  0  0  0  0  0  0  0  0  0
    4.9152   -0.4288    1.0671 H   0  0  0  0  0  0  0  0  0  0  0  0
    5.5781   -1.9290    1.7083 H   0  0  0  0  0  0  0  0  0  0  0  0
    6.3281   -1.1966    0.2854 H   0  0  0  0  0  0  0  0  0  0  0  0
    4.9761   -3.5751   -0.3043 C   0  0  0  0  0  0  0  0  0  0  0  0
    5.2287   -4.0136    0.6575 H   0  0  0  0  0  0  0  0  0  0  0  0
    5.8741   -3.5223   -0.9133 H   0  0  0  0  0  0  0  0  0  0  0  0
    4.2482   -4.2186   -0.7869 H   0  0  0  0  0  0  0  0  0  0  0  0
    3.9972   -1.4038   -1.3792 C   0  0  0  0  0  0  0  0  0  0  0  0
    2.7520   -0.7984   -1.0037 O   0  0  0  0  0  0  0  0  0  0  0  0
    4.9675   -0.3096   -1.8215 C   0  0  0  0  0  0  0  0  0  0  0  0
    5.9532   -0.7269   -2.0078 H   0  0  0  0  0  0  0  0  0  0  0  0
    4.5980    0.1411   -2.7391 H   0  0  0  0  0  0  0  0  0  0  0  0
    5.0284    0.4652   -1.0654 H   0  0  0  0  0  0  0  0  0  0  0  0
    3.7126   -2.3336   -2.5668 C   0  0  0  0  0  0  0  0  0  0  0  0
    2.9977   -3.1002   -2.2817 H   0  0  0  0  0  0  0  0  0  0  0  0
    3.2715   -1.7462   -3.3682 H   0  0  0  0  0  0  0  0  0  0  0  0
    4.6257   -2.7967   -2.9280 H   0  0  0  0  0  0  0  0  0  0  0  0
   -3.2420   -3.2661   -3.2257 H   0  0  0  0  0  0  0  0  0  0  0  0
   -5.2294    1.2931    1.5823 H   0  0  0  0  0  0  0  0  0  0  0  0
    0.2359   -1.6814    2.9603 C   0  0  0  0  0  0  0  0  0  0  0  0
   -1.0270   -2.2377    3.1697 C   0  0  0  0  0  0  0  0  0  0  0  0
    1.0211   -1.3600    4.0846 C   0  0  0  0  0  0  0  0  0  0  0  0
   -1.4929   -2.3630    4.4618 C   0  0  0  0  0  0  0  0  0  0  0  0
   -1.6420   -2.5699    2.3473 H   0  0  0  0  0  0  0  0  0  0  0  0
    0.5561   -1.4960    5.3855 C   0  0  0  0  0  0  0  0  0  0  0  0
    2.3039   -0.8533    3.9540 O   0  0  0  0  0  0  0  0  0  0  0  0
   -0.7248   -1.9888    5.5766 C   0  0  0  0  0  0  0  0  0  0  0  0
   -2.6857   -2.8399    4.9302 O   0  0  0  0  0  0  0  0  0  0  0  0
    1.1813   -1.2215    6.2200 H   0  0  0  0  0  0  0  0  0  0  0  0
    3.3011   -1.8518    3.7998 C   0  0  0  0  0  0  0  0  0  0  0  0
   -1.4679   -2.2452    6.7121 N   0  0  0  0  0  0  0  0  0  0  0  0
   -2.5831   -2.7321    6.2882 C   0  0  0  0  0  0  0  0  0  0  0  0
    4.2527   -1.3256    3.8293 H   0  0  0  0  0  0  0  0  0  0  0  0
    3.1934   -2.3627    2.8419 H   0  0  0  0  0  0  0  0  0  0  0  0
    3.2519   -2.5741    4.6236 H   0  0  0  0  0  0  0  0  0  0  0  0
   -3.7243   -3.1720    7.1201 C   0  0  0  0  0  0  0  0  0  0  0  0
   -3.4584   -3.0657    8.1662 H   0  0  0  0  0  0  0  0  0  0  0  0
   -3.9641   -4.2104    6.8984 H   0  0  0  0  0  0  0  0  0  0  0  0
   -4.6004   -2.5654    6.8968 H   0  0  0  0  0  0  0  0  0  0  0  0
  1  2  4  0  0  0  0
  2  3  4  0  0  0  0
  3  4  4  0  0  0  0
  4  5  4  0  0  0  0
  1  6  4  0  0  0  0
  5  6  4  0  0  0  0
  6  7  1  0  0  0  0
  5  8  1  0  0  0  0
  3  9  1  0  0  0  0
  2 10  1  0  0  0  0
 10 11  4  0  0  0  0
 11 12  4  0  0  0  0
 12 13  4  0  0  0  0
 13 14  4  0  0  0  0
 10 15  4  0  0  0  0
 14 15  4  0  0  0  0
 15 16  1  0  0  0  0
 13 17  1  0  0  0  0
 12 18  1  0  0  0  0
  1 19  1  0  0  0  0
 11 19  1  0  0  0  0
 19 20  1  0  0  0  0
 19 21  1  0  0  0  0
 21 22  1  0  0  0  0
 22 23  1  0  0  0  0
 23 24  1  0  0  0  0
 24 25  1  0  0  0  0
 24 26  1  0  0  0  0
 24 27  1  0  0  0  0
 23 28  1  0  0  0  0
 28 29  1  0  0  0  0
 28 30  1  0  0  0  0
 28 31  1  0  0  0  0
 23 32  1  0  0  0  0
 21 33  1  0  0  0  0
 32 33  1  0  0  0  0
 32 34  1  0  0  0  0
 34 35  1  0  0  0  0
 34 36  1  0  0  0  0
 34 37  1  0  0  0  0
 32 38  1  0  0  0  0
 38 39  1  0  0  0  0
 38 40  1  0  0  0  0
 38 41  1  0  0  0  0
 19 42  1  0  0  0  0
 42 43  1  0  0  0  0
 43 44  1  0  0  0  0
 44 45  1  0  0  0  0
 45 46  1  0  0  0  0
 45 47  1  0  0  0  0
 45 48  1  0  0  0  0
 44 49  1  0  0  0  0
 49 50  1  0  0  0  0
 49 51  1  0  0  0  0
 49 52  1  0  0  0  0
 44 53  1  0  0  0  0
 42 54  1  0  0  0  0
 53 54  1  0  0  0  0
 53 55  1  0  0  0  0
 55 56  1  0  0  0  0
 55 57  1  0  0  0  0
 55 58  1  0  0  0  0
 53 59  1  0  0  0  0
 59 60  1  0  0  0  0
 59 61  1  0  0  0  0
 59 62  1  0  0  0  0
 19 63  1  0  0  0  0
 63 64  1  0  0  0  0
 64 65  1  0  0  0  0
 65 66  1  0  0  0  0
 66 67  1  0  0  0  0
 66 68  1  0  0  0  0
 66 69  1  0  0  0  0
 65 70  1  0  0  0  0
 70 71  1  0  0  0  0
 70 72  1  0  0  0  0
 70 73  1  0  0  0  0
 65 74  1  0  0  0  0
 63 75  1  0  0  0  0
 74 75  1  0  0  0  0
 74 76  1  0  0  0  0
 76 77  1  0  0  0  0
 76 78  1  0  0  0  0
 76 79  1  0  0  0  0
 74 80  1  0  0  0  0
 80 81  1  0  0  0  0
 80 82  1  0  0  0  0
 80 83  1  0  0  0  0
  4 84  1  0  0  0  0
 14 85  1  0  0  0  0
 19 86  1  0  0  0  0
 20 86  1  0  0  0  0
 86 87  4  0  0  0  0
 86 88  4  0  0  0  0
 87 89  4  0  0  0  0
 87 90  1  0  0  0  0
 88 91  4  0  0  0  0
 88 92  1  0  0  0  0
 89 93  4  0  0  0  0
 91 93  4  0  0  0  0
 89 94  1  0  0  0  0
 91 95  1  0  0  0  0
 92 96  1  0  0  0  0
 93 97  1  0  0  0  0
 94 98  1  0  0  0  0
 97 98  2  0  0  0  0
 96 99  1  0  0  0  0
 96100  1  0  0  0  0
 96101  1  0  0  0  0
 98102  1  0  0  0  0
102103  1  0  0  0  0
102104  1  0  0  0  0
102105  1  0  0  0  0
M  END
