   11

C          1.68303       -1.91177       -0.00036
C          2.63997       -0.89734       -0.00012
C          2.23103        0.43300       -0.00285
F          3.15393        1.40392       -0.00124
C          0.88339        0.77225       -0.00617
C         -0.06761       -0.24497       -0.00370
Br        -1.90686        0.19230       -0.00334
C          0.32483       -1.58516       -0.00061
H          1.99313       -2.95380        0.00030
H          3.69972       -1.13318        0.00249
H         -0.41753       -2.37972        0.00219
