
  xtb     10082107263D
 xtb: 6.4.0 (f63f532)
 94101  0     0  0            999 V2000
   -0.9147   -2.0568   -0.3522 N   0  0  0  0  0  0  0  0  0  0  0  0
   -2.1864   -1.6351   -0.4694 C   0  0  0  0  0  0  0  0  0  0  0  0
   -3.1049   -2.3326   -1.2647 C   0  0  0  0  0  0  0  0  0  0  0  0
   -2.6983   -3.4490   -1.9626 C   0  0  0  0  0  0  0  0  0  0  0  0
   -1.3722   -3.8585   -1.8508 C   0  0  0  0  0  0  0  0  0  0  0  0
   -0.5314   -3.1336   -1.0318 C   0  0  0  0  0  0  0  0  0  0  0  0
    0.5020   -3.4222   -0.9009 H   0  0  0  0  0  0  0  0  0  0  0  0
   -1.0089   -4.7240   -2.3804 H   0  0  0  0  0  0  0  0  0  0  0  0
   -4.1307   -2.0096   -1.3290 H   0  0  0  0  0  0  0  0  0  0  0  0
   -2.5405   -0.4301    0.2723 C   0  0  0  0  0  0  0  0  0  0  0  0
   -1.6064    0.0592    1.1150 N   0  0  0  0  0  0  0  0  0  0  0  0
   -1.8956    1.1501    1.8215 C   0  0  0  0  0  0  0  0  0  0  0  0
   -3.0981    1.8211    1.7300 C   0  0  0  0  0  0  0  0  0  0  0  0
   -4.0593    1.3458    0.8429 C   0  0  0  0  0  0  0  0  0  0  0  0
   -3.7725    0.2137    0.1104 C   0  0  0  0  0  0  0  0  0  0  0  0
   -4.4982   -0.1624   -0.5913 H   0  0  0  0  0  0  0  0  0  0  0  0
   -3.2799    2.6949    2.3343 H   0  0  0  0  0  0  0  0  0  0  0  0
   -1.1120    1.4953    2.4783 H   0  0  0  0  0  0  0  0  0  0  0  0
    0.4215   -0.8165    0.9133 Ir  0  0  0  0  0  0  0  0  0  0  0  0
    0.8726   -2.2303    1.5405 H   0  0  0  0  0  0  0  0  0  0  0  0
    0.4161    0.6122   -0.6044 B   0  0  0  0  0  0  0  0  0  0  0  0
   -0.2162    0.3230   -1.7974 O   0  0  0  0  0  0  0  0  0  0  0  0
   -0.2675    1.4939   -2.6216 C   0  0  0  0  0  0  0  0  0  0  0  0
    0.0136    1.1106   -4.0724 C   0  0  0  0  0  0  0  0  0  0  0  0
    0.9296    0.5340   -4.1452 H   0  0  0  0  0  0  0  0  0  0  0  0
    0.0926    2.0035   -4.6869 H   0  0  0  0  0  0  0  0  0  0  0  0
   -0.8042    0.4986   -4.4453 H   0  0  0  0  0  0  0  0  0  0  0  0
   -1.6910    2.0581   -2.5122 C   0  0  0  0  0  0  0  0  0  0  0  0
   -1.8176    2.9275   -3.1504 H   0  0  0  0  0  0  0  0  0  0  0  0
   -2.3955    1.2875   -2.8185 H   0  0  0  0  0  0  0  0  0  0  0  0
   -1.9107    2.3245   -1.4802 H   0  0  0  0  0  0  0  0  0  0  0  0
    0.8053    2.4225   -1.9625 C   0  0  0  0  0  0  0  0  0  0  0  0
    0.8882    1.9028   -0.6269 O   0  0  0  0  0  0  0  0  0  0  0  0
    2.1953    2.2497   -2.5865 C   0  0  0  0  0  0  0  0  0  0  0  0
    2.4809    1.2020   -2.5328 H   0  0  0  0  0  0  0  0  0  0  0  0
    2.2167    2.6019   -3.6136 H   0  0  0  0  0  0  0  0  0  0  0  0
    2.9128    2.8195   -2.0009 H   0  0  0  0  0  0  0  0  0  0  0  0
    0.4422    3.9054   -1.9245 C   0  0  0  0  0  0  0  0  0  0  0  0
   -0.4473    4.0791   -1.3271 H   0  0  0  0  0  0  0  0  0  0  0  0
    1.2635    4.4611   -1.4787 H   0  0  0  0  0  0  0  0  0  0  0  0
    0.2784    4.2735   -2.9340 H   0  0  0  0  0  0  0  0  0  0  0  0
    1.5660    0.6334    1.8886 B   0  0  0  0  0  0  0  0  0  0  0  0
    2.9338    0.7571    1.9191 O   0  0  0  0  0  0  0  0  0  0  0  0
    3.3003    2.0311    2.4715 C   0  0  0  0  0  0  0  0  0  0  0  0
    4.5388    1.8786    3.3528 C   0  0  0  0  0  0  0  0  0  0  0  0
    4.3980    1.1037    4.0990 H   0  0  0  0  0  0  0  0  0  0  0  0
    5.3861    1.5996    2.7317 H   0  0  0  0  0  0  0  0  0  0  0  0
    4.7623    2.8207    3.8460 H   0  0  0  0  0  0  0  0  0  0  0  0
    3.6253    2.9412    1.2813 C   0  0  0  0  0  0  0  0  0  0  0  0
    3.8966    3.9413    1.6056 H   0  0  0  0  0  0  0  0  0  0  0  0
    4.4583    2.5086    0.7318 H   0  0  0  0  0  0  0  0  0  0  0  0
    2.7661    2.9722    0.6162 H   0  0  0  0  0  0  0  0  0  0  0  0
    1.9992    2.4649    3.2299 C   0  0  0  0  0  0  0  0  0  0  0  0
    0.9902    1.6484    2.6182 O   0  0  0  0  0  0  0  0  0  0  0  0
    1.6202    3.9356    3.0668 C   0  0  0  0  0  0  0  0  0  0  0  0
    1.4061    4.1613    2.0275 H   0  0  0  0  0  0  0  0  0  0  0  0
    0.7266    4.1392    3.6518 H   0  0  0  0  0  0  0  0  0  0  0  0
    2.4247    4.5725    3.4241 H   0  0  0  0  0  0  0  0  0  0  0  0
    2.0235    2.1126    4.7227 C   0  0  0  0  0  0  0  0  0  0  0  0
    2.2538    1.0591    4.8561 H   0  0  0  0  0  0  0  0  0  0  0  0
    2.7481    2.7205    5.2555 H   0  0  0  0  0  0  0  0  0  0  0  0
    1.0355    2.2925    5.1406 H   0  0  0  0  0  0  0  0  0  0  0  0
    2.2782   -1.3309    0.1741 B   0  0  0  0  0  0  0  0  0  0  0  0
    3.0945   -2.2959    0.7250 O   0  0  0  0  0  0  0  0  0  0  0  0
    4.3822   -2.2787    0.0934 C   0  0  0  0  0  0  0  0  0  0  0  0
    5.3262   -1.5440    1.0512 C   0  0  0  0  0  0  0  0  0  0  0  0
    4.9081   -0.5671    1.2771 H   0  0  0  0  0  0  0  0  0  0  0  0
    5.3815   -2.1076    1.9793 H   0  0  0  0  0  0  0  0  0  0  0  0
    6.3241   -1.4497    0.6348 H   0  0  0  0  0  0  0  0  0  0  0  0
    4.8723   -3.7132   -0.1016 C   0  0  0  0  0  0  0  0  0  0  0  0
    5.0088   -4.1718    0.8742 H   0  0  0  0  0  0  0  0  0  0  0  0
    5.8225   -3.7151   -0.6280 H   0  0  0  0  0  0  0  0  0  0  0  0
    4.1511   -4.3070   -0.6532 H   0  0  0  0  0  0  0  0  0  0  0  0
    4.1073   -1.4831   -1.2314 C   0  0  0  0  0  0  0  0  0  0  0  0
    2.8665   -0.8133   -0.9530 O   0  0  0  0  0  0  0  0  0  0  0  0
    5.1686   -0.4426   -1.5839 C   0  0  0  0  0  0  0  0  0  0  0  0
    6.1399   -0.9166   -1.6934 H   0  0  0  0  0  0  0  0  0  0  0  0
    4.9026    0.0341   -2.5239 H   0  0  0  0  0  0  0  0  0  0  0  0
    5.2160    0.3230   -0.8175 H   0  0  0  0  0  0  0  0  0  0  0  0
    3.8679   -2.3900   -2.4458 C   0  0  0  0  0  0  0  0  0  0  0  0
    3.0853   -3.1117   -2.2285 H   0  0  0  0  0  0  0  0  0  0  0  0
    3.5336   -1.7749   -3.2778 H   0  0  0  0  0  0  0  0  0  0  0  0
    4.7782   -2.9078   -2.7320 H   0  0  0  0  0  0  0  0  0  0  0  0
   -3.3951   -3.9944   -2.5804 H   0  0  0  0  0  0  0  0  0  0  0  0
   -5.0061    1.8509    0.7276 H   0  0  0  0  0  0  0  0  0  0  0  0
    0.2359   -1.6814    2.9603 C   0  0  0  0  0  0  0  0  0  0  0  0
   -1.0519   -2.0409    3.3858 C   0  0  0  0  0  0  0  0  0  0  0  0
    1.1674   -1.5590    3.9872 C   0  0  0  0  0  0  0  0  0  0  0  0
   -1.4016   -2.1612    4.6514 N   0  0  0  0  0  0  0  0  0  0  0  0
   -1.8539   -2.2453    2.6879 H   0  0  0  0  0  0  0  0  0  0  0  0
    0.7230   -1.7028    5.2967 C   0  0  0  0  0  0  0  0  0  0  0  0
    2.2046   -1.3573    3.7690 H   0  0  0  0  0  0  0  0  0  0  0  0
   -0.5332   -1.9775    5.6060 N   0  0  0  0  0  0  0  0  0  0  0  0
    1.3892   -1.6002    6.1433 H   0  0  0  0  0  0  0  0  0  0  0  0
  1  2  4  0  0  0  0
  2  3  4  0  0  0  0
  3  4  4  0  0  0  0
  4  5  4  0  0  0  0
  1  6  4  0  0  0  0
  5  6  4  0  0  0  0
  6  7  1  0  0  0  0
  5  8  1  0  0  0  0
  3  9  1  0  0  0  0
  2 10  1  0  0  0  0
 10 11  4  0  0  0  0
 11 12  4  0  0  0  0
 12 13  4  0  0  0  0
 13 14  4  0  0  0  0
 10 15  4  0  0  0  0
 14 15  4  0  0  0  0
 15 16  1  0  0  0  0
 13 17  1  0  0  0  0
 12 18  1  0  0  0  0
  1 19  1  0  0  0  0
 11 19  1  0  0  0  0
 19 20  1  0  0  0  0
 19 21  1  0  0  0  0
 21 22  1  0  0  0  0
 22 23  1  0  0  0  0
 23 24  1  0  0  0  0
 24 25  1  0  0  0  0
 24 26  1  0  0  0  0
 24 27  1  0  0  0  0
 23 28  1  0  0  0  0
 28 29  1  0  0  0  0
 28 30  1  0  0  0  0
 28 31  1  0  0  0  0
 23 32  1  0  0  0  0
 21 33  1  0  0  0  0
 32 33  1  0  0  0  0
 32 34  1  0  0  0  0
 34 35  1  0  0  0  0
 34 36  1  0  0  0  0
 34 37  1  0  0  0  0
 32 38  1  0  0  0  0
 38 39  1  0  0  0  0
 38 40  1  0  0  0  0
 38 41  1  0  0  0  0
 19 42  1  0  0  0  0
 42 43  1  0  0  0  0
 43 44  1  0  0  0  0
 44 45  1  0  0  0  0
 45 46  1  0  0  0  0
 45 47  1  0  0  0  0
 45 48  1  0  0  0  0
 44 49  1  0  0  0  0
 49 50  1  0  0  0  0
 49 51  1  0  0  0  0
 49 52  1  0  0  0  0
 44 53  1  0  0  0  0
 42 54  1  0  0  0  0
 53 54  1  0  0  0  0
 53 55  1  0  0  0  0
 55 56  1  0  0  0  0
 55 57  1  0  0  0  0
 55 58  1  0  0  0  0
 53 59  1  0  0  0  0
 59 60  1  0  0  0  0
 59 61  1  0  0  0  0
 59 62  1  0  0  0  0
 19 63  1  0  0  0  0
 63 64  1  0  0  0  0
 64 65  1  0  0  0  0
 65 66  1  0  0  0  0
 66 67  1  0  0  0  0
 66 68  1  0  0  0  0
 66 69  1  0  0  0  0
 65 70  1  0  0  0  0
 70 71  1  0  0  0  0
 70 72  1  0  0  0  0
 70 73  1  0  0  0  0
 65 74  1  0  0  0  0
 63 75  1  0  0  0  0
 74 75  1  0  0  0  0
 74 76  1  0  0  0  0
 76 77  1  0  0  0  0
 76 78  1  0  0  0  0
 76 79  1  0  0  0  0
 74 80  1  0  0  0  0
 80 81  1  0  0  0  0
 80 82  1  0  0  0  0
 80 83  1  0  0  0  0
  4 84  1  0  0  0  0
 14 85  1  0  0  0  0
 19 86  1  0  0  0  0
 20 86  1  0  0  0  0
 86 87  4  0  0  0  0
 86 88  4  0  0  0  0
 87 89  4  0  0  0  0
 87 90  1  0  0  0  0
 88 91  4  0  0  0  0
 88 92  1  0  0  0  0
 89 93  4  0  0  0  0
 91 93  4  0  0  0  0
 91 94  1  0  0  0  0
M  END
