    9

S          1.29959       -0.89054        0.00479
C         -0.38069       -1.22227        0.00579
C         -0.91433       -2.54709        0.01047
N         -1.36033       -3.61823        0.01478
C         -1.12960       -0.06032        0.00210
C         -0.30967        1.11039       -0.00040
C          1.02200        0.78030        0.00124
Br         2.40265        2.04585        0.00008
H         -0.68706        2.12617       -0.00284
