
  xtb     10082107123D
 xtb: 6.4.0 (f63f532)
107115  0     0  0            999 V2000
   -0.9109   -2.0946   -0.3261 N   0  0  0  0  0  0  0  0  0  0  0  0
   -2.1859   -1.6826   -0.4489 C   0  0  0  0  0  0  0  0  0  0  0  0
   -3.0919   -2.3797   -1.2595 C   0  0  0  0  0  0  0  0  0  0  0  0
   -2.6720   -3.4886   -1.9606 C   0  0  0  0  0  0  0  0  0  0  0  0
   -1.3438   -3.8903   -1.8391 C   0  0  0  0  0  0  0  0  0  0  0  0
   -0.5154   -3.1640   -1.0095 C   0  0  0  0  0  0  0  0  0  0  0  0
    0.5195   -3.4452   -0.8738 H   0  0  0  0  0  0  0  0  0  0  0  0
   -0.9707   -4.7504   -2.3710 H   0  0  0  0  0  0  0  0  0  0  0  0
   -4.1190   -2.0625   -1.3340 H   0  0  0  0  0  0  0  0  0  0  0  0
   -2.5525   -0.4884    0.3012 C   0  0  0  0  0  0  0  0  0  0  0  0
   -1.6161    0.0153    1.1342 N   0  0  0  0  0  0  0  0  0  0  0  0
   -1.9175    1.0970    1.8501 C   0  0  0  0  0  0  0  0  0  0  0  0
   -3.1308    1.7493    1.7736 C   0  0  0  0  0  0  0  0  0  0  0  0
   -4.0959    1.2592    0.8969 C   0  0  0  0  0  0  0  0  0  0  0  0
   -3.7993    0.1335    0.1597 C   0  0  0  0  0  0  0  0  0  0  0  0
   -4.5295   -0.2567   -0.5298 H   0  0  0  0  0  0  0  0  0  0  0  0
   -3.3208    2.6194    2.3812 H   0  0  0  0  0  0  0  0  0  0  0  0
   -1.1330    1.4491    2.5020 H   0  0  0  0  0  0  0  0  0  0  0  0
    0.4215   -0.8165    0.9133 Ir  0  0  0  0  0  0  0  0  0  0  0  0
    0.8726   -2.2303    1.5405 H   0  0  0  0  0  0  0  0  0  0  0  0
    0.3553    0.6008   -0.6177 B   0  0  0  0  0  0  0  0  0  0  0  0
   -0.3299    0.2903   -1.7794 O   0  0  0  0  0  0  0  0  0  0  0  0
   -0.4516    1.4529   -2.6047 C   0  0  0  0  0  0  0  0  0  0  0  0
   -0.2515    1.0681   -4.0686 C   0  0  0  0  0  0  0  0  0  0  0  0
    0.6653    0.5016   -4.1940 H   0  0  0  0  0  0  0  0  0  0  0  0
   -0.2195    1.9598   -4.6894 H   0  0  0  0  0  0  0  0  0  0  0  0
   -1.0824    0.4451   -4.3913 H   0  0  0  0  0  0  0  0  0  0  0  0
   -1.8761    1.9940   -2.4139 C   0  0  0  0  0  0  0  0  0  0  0  0
   -2.0577    2.8543   -3.0512 H   0  0  0  0  0  0  0  0  0  0  0  0
   -2.5844    1.2078   -2.6683 H   0  0  0  0  0  0  0  0  0  0  0  0
   -2.0365    2.2674   -1.3728 H   0  0  0  0  0  0  0  0  0  0  0  0
    0.6398    2.4045   -2.0143 C   0  0  0  0  0  0  0  0  0  0  0  0
    0.8005    1.9025   -0.6809 O   0  0  0  0  0  0  0  0  0  0  0  0
    1.9965    2.2444   -2.7113 C   0  0  0  0  0  0  0  0  0  0  0  0
    2.2976    1.2004   -2.6676 H   0  0  0  0  0  0  0  0  0  0  0  0
    1.9584    2.5895   -3.7406 H   0  0  0  0  0  0  0  0  0  0  0  0
    2.7375    2.8270   -2.1690 H   0  0  0  0  0  0  0  0  0  0  0  0
    0.2562    3.8825   -1.9746 C   0  0  0  0  0  0  0  0  0  0  0  0
   -0.5999    4.0502   -1.3285 H   0  0  0  0  0  0  0  0  0  0  0  0
    1.0928    4.4573   -1.5847 H   0  0  0  0  0  0  0  0  0  0  0  0
    0.0276    4.2342   -2.9775 H   0  0  0  0  0  0  0  0  0  0  0  0
    1.5466    0.6854    1.8253 B   0  0  0  0  0  0  0  0  0  0  0  0
    2.9084    0.8723    1.7882 O   0  0  0  0  0  0  0  0  0  0  0  0
    3.2478    2.1604    2.3203 C   0  0  0  0  0  0  0  0  0  0  0  0
    4.5232    2.0574    3.1557 C   0  0  0  0  0  0  0  0  0  0  0  0
    4.4367    1.2810    3.9083 H   0  0  0  0  0  0  0  0  0  0  0  0
    5.3561    1.8053    2.5044 H   0  0  0  0  0  0  0  0  0  0  0  0
    4.7313    3.0096    3.6362 H   0  0  0  0  0  0  0  0  0  0  0  0
    3.4979    3.0770    1.1166 C   0  0  0  0  0  0  0  0  0  0  0  0
    3.7437    4.0881    1.4274 H   0  0  0  0  0  0  0  0  0  0  0  0
    4.3269    2.6727    0.5399 H   0  0  0  0  0  0  0  0  0  0  0  0
    2.6159    3.0736    0.4815 H   0  0  0  0  0  0  0  0  0  0  0  0
    1.9617    2.5506    3.1265 C   0  0  0  0  0  0  0  0  0  0  0  0
    0.9622    1.6910    2.5643 O   0  0  0  0  0  0  0  0  0  0  0  0
    1.5205    4.0048    2.9668 C   0  0  0  0  0  0  0  0  0  0  0  0
    1.2562    4.2116    1.9351 H   0  0  0  0  0  0  0  0  0  0  0  0
    0.6438    4.1804    3.5854 H   0  0  0  0  0  0  0  0  0  0  0  0
    2.3133    4.6763    3.2848 H   0  0  0  0  0  0  0  0  0  0  0  0
    2.0597    2.2130    4.6198 C   0  0  0  0  0  0  0  0  0  0  0  0
    2.3229    1.1669    4.7473 H   0  0  0  0  0  0  0  0  0  0  0  0
    2.7893    2.8449    5.1169 H   0  0  0  0  0  0  0  0  0  0  0  0
    1.0854    2.3696    5.0764 H   0  0  0  0  0  0  0  0  0  0  0  0
    2.2782   -1.3309    0.1741 B   0  0  0  0  0  0  0  0  0  0  0  0
    3.1746   -2.1950    0.7655 O   0  0  0  0  0  0  0  0  0  0  0  0
    4.4278   -2.1659    0.0708 C   0  0  0  0  0  0  0  0  0  0  0  0
    5.3722   -1.2960    0.9076 C   0  0  0  0  0  0  0  0  0  0  0  0
    4.9069   -0.3279    1.0683 H   0  0  0  0  0  0  0  0  0  0  0  0
    5.5058   -1.7680    1.8776 H   0  0  0  0  0  0  0  0  0  0  0  0
    6.3411   -1.1852    0.4309 H   0  0  0  0  0  0  0  0  0  0  0  0
    4.9934   -3.5832   -0.0206 C   0  0  0  0  0  0  0  0  0  0  0  0
    5.1987   -3.9429    0.9843 H   0  0  0  0  0  0  0  0  0  0  0  0
    5.9185   -3.5800   -0.5904 H   0  0  0  0  0  0  0  0  0  0  0  0
    4.2856   -4.2637   -0.4818 H   0  0  0  0  0  0  0  0  0  0  0  0
    4.0482   -1.5117   -1.3049 C   0  0  0  0  0  0  0  0  0  0  0  0
    2.7851   -0.8888   -1.0266 O   0  0  0  0  0  0  0  0  0  0  0  0
    5.0293   -0.4513   -1.8024 C   0  0  0  0  0  0  0  0  0  0  0  0
    6.0211   -0.8789   -1.9204 H   0  0  0  0  0  0  0  0  0  0  0  0
    4.6915   -0.0782   -2.7661 H   0  0  0  0  0  0  0  0  0  0  0  0
    5.0669    0.3831   -1.1106 H   0  0  0  0  0  0  0  0  0  0  0  0
    3.8127   -2.5384   -2.4212 C   0  0  0  0  0  0  0  0  0  0  0  0
    3.0891   -3.2833   -2.1019 H   0  0  0  0  0  0  0  0  0  0  0  0
    3.4028   -2.0231   -3.2866 H   0  0  0  0  0  0  0  0  0  0  0  0
    4.7407   -3.0249   -2.7057 H   0  0  0  0  0  0  0  0  0  0  0  0
   -3.3593   -4.0341   -2.5893 H   0  0  0  0  0  0  0  0  0  0  0  0
   -5.0530    1.7482    0.7946 H   0  0  0  0  0  0  0  0  0  0  0  0
    0.2359   -1.6814    2.9603 C   0  0  0  0  0  0  0  0  0  0  0  0
   -1.0263   -2.1085    3.3543 C   0  0  0  0  0  0  0  0  0  0  0  0
    1.2010   -1.4794    3.9461 C   0  0  0  0  0  0  0  0  0  0  0  0
   -1.3526   -2.2542    4.6992 C   0  0  0  0  0  0  0  0  0  0  0  0
   -1.7811   -2.3510    2.6177 H   0  0  0  0  0  0  0  0  0  0  0  0
    0.8820   -1.6115    5.2854 C   0  0  0  0  0  0  0  0  0  0  0  0
    2.2065   -1.2244    3.6486 H   0  0  0  0  0  0  0  0  0  0  0  0
   -2.7316   -2.7362    5.0870 C   0  0  0  0  0  0  0  0  0  0  0  0
   -0.3953   -1.9916    5.6670 C   0  0  0  0  0  0  0  0  0  0  0  0
    1.6340   -1.4362    6.0420 H   0  0  0  0  0  0  0  0  0  0  0  0
   -3.0530   -3.9851    4.4402 N   0  0  0  0  0  0  0  0  0  0  0  0
   -3.4860   -2.0010    4.7909 H   0  0  0  0  0  0  0  0  0  0  0  0
   -2.7838   -2.8637    6.1748 H   0  0  0  0  0  0  0  0  0  0  0  0
   -0.6387   -2.1026    6.7142 H   0  0  0  0  0  0  0  0  0  0  0  0
   -2.3022   -5.1140    4.5133 C   0  0  0  0  0  0  0  0  0  0  0  0
   -4.1310   -4.2290    3.6536 C   0  0  0  0  0  0  0  0  0  0  0  0
   -2.9060   -6.0908    3.7678 C   0  0  0  0  0  0  0  0  0  0  0  0
   -1.3923   -5.1360    5.0805 H   0  0  0  0  0  0  0  0  0  0  0  0
   -4.0741   -5.5269    3.2198 C   0  0  0  0  0  0  0  0  0  0  0  0
   -4.8645   -3.4690    3.4633 H   0  0  0  0  0  0  0  0  0  0  0  0
   -2.5550   -7.0956    3.6299 H   0  0  0  0  0  0  0  0  0  0  0  0
   -4.7855   -6.0188    2.5843 H   0  0  0  0  0  0  0  0  0  0  0  0
  1  2  4  0  0  0  0
  2  3  4  0  0  0  0
  3  4  4  0  0  0  0
  4  5  4  0  0  0  0
  1  6  4  0  0  0  0
  5  6  4  0  0  0  0
  6  7  1  0  0  0  0
  5  8  1  0  0  0  0
  3  9  1  0  0  0  0
  2 10  1  0  0  0  0
 10 11  4  0  0  0  0
 11 12  4  0  0  0  0
 12 13  4  0  0  0  0
 13 14  4  0  0  0  0
 10 15  4  0  0  0  0
 14 15  4  0  0  0  0
 15 16  1  0  0  0  0
 13 17  1  0  0  0  0
 12 18  1  0  0  0  0
  1 19  1  0  0  0  0
 11 19  1  0  0  0  0
 19 20  1  0  0  0  0
 19 21  1  0  0  0  0
 21 22  1  0  0  0  0
 22 23  1  0  0  0  0
 23 24  1  0  0  0  0
 24 25  1  0  0  0  0
 24 26  1  0  0  0  0
 24 27  1  0  0  0  0
 23 28  1  0  0  0  0
 28 29  1  0  0  0  0
 28 30  1  0  0  0  0
 28 31  1  0  0  0  0
 23 32  1  0  0  0  0
 21 33  1  0  0  0  0
 32 33  1  0  0  0  0
 32 34  1  0  0  0  0
 34 35  1  0  0  0  0
 34 36  1  0  0  0  0
 34 37  1  0  0  0  0
 32 38  1  0  0  0  0
 38 39  1  0  0  0  0
 38 40  1  0  0  0  0
 38 41  1  0  0  0  0
 19 42  1  0  0  0  0
 42 43  1  0  0  0  0
 43 44  1  0  0  0  0
 44 45  1  0  0  0  0
 45 46  1  0  0  0  0
 45 47  1  0  0  0  0
 45 48  1  0  0  0  0
 44 49  1  0  0  0  0
 49 50  1  0  0  0  0
 49 51  1  0  0  0  0
 49 52  1  0  0  0  0
 44 53  1  0  0  0  0
 42 54  1  0  0  0  0
 53 54  1  0  0  0  0
 53 55  1  0  0  0  0
 55 56  1  0  0  0  0
 55 57  1  0  0  0  0
 55 58  1  0  0  0  0
 53 59  1  0  0  0  0
 59 60  1  0  0  0  0
 59 61  1  0  0  0  0
 59 62  1  0  0  0  0
 19 63  1  0  0  0  0
 63 64  1  0  0  0  0
 64 65  1  0  0  0  0
 65 66  1  0  0  0  0
 66 67  1  0  0  0  0
 66 68  1  0  0  0  0
 66 69  1  0  0  0  0
 65 70  1  0  0  0  0
 70 71  1  0  0  0  0
 70 72  1  0  0  0  0
 70 73  1  0  0  0  0
 65 74  1  0  0  0  0
 63 75  1  0  0  0  0
 74 75  1  0  0  0  0
 74 76  1  0  0  0  0
 76 77  1  0  0  0  0
 76 78  1  0  0  0  0
 76 79  1  0  0  0  0
 74 80  1  0  0  0  0
 80 81  1  0  0  0  0
 80 82  1  0  0  0  0
 80 83  1  0  0  0  0
  4 84  1  0  0  0  0
 14 85  1  0  0  0  0
 19 86  1  0  0  0  0
 20 86  1  0  0  0  0
 86 87  4  0  0  0  0
 86 88  4  0  0  0  0
 87 89  4  0  0  0  0
 87 90  1  0  0  0  0
 88 91  4  0  0  0  0
 88 92  1  0  0  0  0
 89 93  1  0  0  0  0
 89 94  4  0  0  0  0
 91 94  4  0  0  0  0
 91 95  1  0  0  0  0
 93 96  1  0  0  0  0
 93 97  1  0  0  0  0
 93 98  1  0  0  0  0
 94 99  1  0  0  0  0
 96100  4  0  0  0  0
 96101  4  0  0  0  0
100102  2  0  0  0  0
100103  1  0  0  0  0
101104  2  0  0  0  0
102104  4  0  0  0  0
101105  1  0  0  0  0
102106  1  0  0  0  0
104107  1  0  0  0  0
M  END
