
  xtb     01142215293D
 xtb: 6.4.1 (1a32961)
 97104  0     0  0            999 V2000
   -0.9057   -2.0027   -0.4174 N   0  0  0  0  0  0  0  0  0  0  0  0
   -2.1383   -1.5040   -0.6079 C   0  0  0  0  0  0  0  0  0  0  0  0
   -3.0090   -2.0790   -1.5398 C   0  0  0  0  0  0  0  0  0  0  0  0
   -2.6019   -3.1704   -2.2767 C   0  0  0  0  0  0  0  0  0  0  0  0
   -1.3214   -3.6727   -2.0716 C   0  0  0  0  0  0  0  0  0  0  0  0
   -0.5207   -3.0529   -1.1341 C   0  0  0  0  0  0  0  0  0  0  0  0
    0.4799   -3.4108   -0.9351 H   0  0  0  0  0  0  0  0  0  0  0  0
   -0.9612   -4.5268   -2.6216 H   0  0  0  0  0  0  0  0  0  0  0  0
   -4.0010   -1.6846   -1.6815 H   0  0  0  0  0  0  0  0  0  0  0  0
   -2.5081   -0.3526    0.2110 C   0  0  0  0  0  0  0  0  0  0  0  0
   -1.5941    0.0722    1.1065 N   0  0  0  0  0  0  0  0  0  0  0  0
   -1.9019    1.0966    1.8986 C   0  0  0  0  0  0  0  0  0  0  0  0
   -3.1089    1.7643    1.8468 C   0  0  0  0  0  0  0  0  0  0  0  0
   -4.0524    1.3543    0.9109 C   0  0  0  0  0  0  0  0  0  0  0  0
   -3.7440    0.2899    0.0898 C   0  0  0  0  0  0  0  0  0  0  0  0
   -4.4636   -0.0411   -0.6395 H   0  0  0  0  0  0  0  0  0  0  0  0
   -3.3073    2.5828    2.5196 H   0  0  0  0  0  0  0  0  0  0  0  0
   -1.1288    1.3925    2.5914 H   0  0  0  0  0  0  0  0  0  0  0  0
    0.4215   -0.8165    0.9133 Ir  0  0  0  0  0  0  0  0  0  0  0  0
    0.8726   -2.2303    1.5405 H   0  0  0  0  0  0  0  0  0  0  0  0
    0.4319    0.6104   -0.6111 B   0  0  0  0  0  0  0  0  0  0  0  0
   -0.1967    0.3254   -1.8072 O   0  0  0  0  0  0  0  0  0  0  0  0
   -0.2657    1.5037   -2.6189 C   0  0  0  0  0  0  0  0  0  0  0  0
    0.0064    1.1376   -4.0757 C   0  0  0  0  0  0  0  0  0  0  0  0
    0.9261    0.5688   -4.1625 H   0  0  0  0  0  0  0  0  0  0  0  0
    0.0727    2.0372   -4.6819 H   0  0  0  0  0  0  0  0  0  0  0  0
   -0.8100    0.5228   -4.4468 H   0  0  0  0  0  0  0  0  0  0  0  0
   -1.6935    2.0532   -2.4933 C   0  0  0  0  0  0  0  0  0  0  0  0
   -1.8340    2.9261   -3.1236 H   0  0  0  0  0  0  0  0  0  0  0  0
   -2.3922    1.2773   -2.7996 H   0  0  0  0  0  0  0  0  0  0  0  0
   -1.9076    2.3090   -1.4575 H   0  0  0  0  0  0  0  0  0  0  0  0
    0.8031    2.4348   -1.9577 C   0  0  0  0  0  0  0  0  0  0  0  0
    0.8962    1.9041   -0.6267 O   0  0  0  0  0  0  0  0  0  0  0  0
    2.1901    2.2774   -2.5921 C   0  0  0  0  0  0  0  0  0  0  0  0
    2.4831    1.2313   -2.5487 H   0  0  0  0  0  0  0  0  0  0  0  0
    2.2012    2.6372   -3.6167 H   0  0  0  0  0  0  0  0  0  0  0  0
    2.9082    2.8483   -2.0082 H   0  0  0  0  0  0  0  0  0  0  0  0
    0.4283    3.9142   -1.9051 C   0  0  0  0  0  0  0  0  0  0  0  0
   -0.4595    4.0752   -1.3017 H   0  0  0  0  0  0  0  0  0  0  0  0
    1.2474    4.4731   -1.4590 H   0  0  0  0  0  0  0  0  0  0  0  0
    0.2560    4.2893   -2.9106 H   0  0  0  0  0  0  0  0  0  0  0  0
    1.5693    0.6486    1.8647 B   0  0  0  0  0  0  0  0  0  0  0  0
    2.9370    0.7705    1.8812 O   0  0  0  0  0  0  0  0  0  0  0  0
    3.3134    2.0504    2.4114 C   0  0  0  0  0  0  0  0  0  0  0  0
    4.5455    1.8980    3.3022 C   0  0  0  0  0  0  0  0  0  0  0  0
    4.3875    1.1457    4.0678 H   0  0  0  0  0  0  0  0  0  0  0  0
    5.3894    1.5863    2.6921 H   0  0  0  0  0  0  0  0  0  0  0  0
    4.7861    2.8480    3.7716 H   0  0  0  0  0  0  0  0  0  0  0  0
    3.6578    2.9340    1.2070 C   0  0  0  0  0  0  0  0  0  0  0  0
    3.9363    3.9376    1.5141 H   0  0  0  0  0  0  0  0  0  0  0  0
    4.4914    2.4832    0.6731 H   0  0  0  0  0  0  0  0  0  0  0  0
    2.8044    2.9601    0.5348 H   0  0  0  0  0  0  0  0  0  0  0  0
    2.0129    2.5138    3.1549 C   0  0  0  0  0  0  0  0  0  0  0  0
    0.9996    1.6785    2.5758 O   0  0  0  0  0  0  0  0  0  0  0  0
    1.6358    3.9780    2.9360 C   0  0  0  0  0  0  0  0  0  0  0  0
    1.4235    4.1637    1.8886 H   0  0  0  0  0  0  0  0  0  0  0  0
    0.7409    4.2036    3.5106 H   0  0  0  0  0  0  0  0  0  0  0  0
    2.4397    4.6279    3.2703 H   0  0  0  0  0  0  0  0  0  0  0  0
    2.0378    2.2204    4.6599 C   0  0  0  0  0  0  0  0  0  0  0  0
    2.2595    1.1718    4.8364 H   0  0  0  0  0  0  0  0  0  0  0  0
    2.7702    2.8413    5.1668 H   0  0  0  0  0  0  0  0  0  0  0  0
    1.0536    2.4282    5.0735 H   0  0  0  0  0  0  0  0  0  0  0  0
    2.2782   -1.3309    0.1741 B   0  0  0  0  0  0  0  0  0  0  0  0
    3.1039   -2.2921    0.7170 O   0  0  0  0  0  0  0  0  0  0  0  0
    4.3837   -2.2742    0.0695 C   0  0  0  0  0  0  0  0  0  0  0  0
    5.3395   -1.5424    1.0177 C   0  0  0  0  0  0  0  0  0  0  0  0
    4.9259   -0.5649    1.2491 H   0  0  0  0  0  0  0  0  0  0  0  0
    5.4039   -2.1072    1.9445 H   0  0  0  0  0  0  0  0  0  0  0  0
    6.3330   -1.4494    0.5907 H   0  0  0  0  0  0  0  0  0  0  0  0
    4.8705   -3.7085   -0.1353 C   0  0  0  0  0  0  0  0  0  0  0  0
    5.0205   -4.1695    0.8374 H   0  0  0  0  0  0  0  0  0  0  0  0
    5.8132   -3.7095   -0.6750 H   0  0  0  0  0  0  0  0  0  0  0  0
    4.1412   -4.3003   -0.6782 H   0  0  0  0  0  0  0  0  0  0  0  0
    4.0941   -1.4758   -1.2506 C   0  0  0  0  0  0  0  0  0  0  0  0
    2.8541   -0.8109   -0.9587 O   0  0  0  0  0  0  0  0  0  0  0  0
    5.1492   -0.4313   -1.6100 C   0  0  0  0  0  0  0  0  0  0  0  0
    6.1209   -0.9020   -1.7300 H   0  0  0  0  0  0  0  0  0  0  0  0
    4.8732    0.0473   -2.5462 H   0  0  0  0  0  0  0  0  0  0  0  0
    5.2016    0.3324   -0.8420 H   0  0  0  0  0  0  0  0  0  0  0  0
    3.8461   -2.3790   -2.4660 C   0  0  0  0  0  0  0  0  0  0  0  0
    3.0678   -3.1039   -2.2442 H   0  0  0  0  0  0  0  0  0  0  0  0
    3.5018   -1.7617   -3.2922 H   0  0  0  0  0  0  0  0  0  0  0  0
    4.7552   -2.8928   -2.7633 H   0  0  0  0  0  0  0  0  0  0  0  0
   -3.2664   -3.6255   -2.9952 H   0  0  0  0  0  0  0  0  0  0  0  0
   -5.0052    1.8546    0.8276 H   0  0  0  0  0  0  0  0  0  0  0  0
    0.2359   -1.6814    2.9603 C   0  0  0  0  0  0  0  0  0  0  0  0
   -1.0259   -2.0928    3.4264 C   0  0  0  0  0  0  0  0  0  0  0  0
    1.2376   -1.5082    3.9200 C   0  0  0  0  0  0  0  0  0  0  0  0
   -1.2977   -2.2033    4.7979 C   0  0  0  0  0  0  0  0  0  0  0  0
   -2.0630   -2.4523    2.5460 C   0  0  0  0  0  0  0  0  0  0  0  0
    0.9592   -1.6309    5.2664 C   0  0  0  0  0  0  0  0  0  0  0  0
    2.2384   -1.2764    3.5916 H   0  0  0  0  0  0  0  0  0  0  0  0
   -0.3123   -1.9593    5.7274 C   0  0  0  0  0  0  0  0  0  0  0  0
   -2.2885   -2.4919    5.1181 H   0  0  0  0  0  0  0  0  0  0  0  0
   -2.9373   -2.7982    1.8825 N   0  0  0  0  0  0  0  0  0  0  0  0
    2.2283   -1.3860    6.4243 Cl  0  0  0  0  0  0  0  0  0  0  0  0
   -0.5100   -2.0412    6.7838 H   0  0  0  0  0  0  0  0  0  0  0  0
  1  2  4  0  0  0  0
  2  3  4  0  0  0  0
  3  4  4  0  0  0  0
  4  5  4  0  0  0  0
  1  6  4  0  0  0  0
  5  6  4  0  0  0  0
  6  7  1  0  0  0  0
  5  8  1  0  0  0  0
  3  9  1  0  0  0  0
  2 10  1  0  0  0  0
 10 11  4  0  0  0  0
 11 12  4  0  0  0  0
 12 13  4  0  0  0  0
 13 14  4  0  0  0  0
 10 15  4  0  0  0  0
 14 15  4  0  0  0  0
 15 16  1  0  0  0  0
 13 17  1  0  0  0  0
 12 18  1  0  0  0  0
  1 19  1  0  0  0  0
 11 19  1  0  0  0  0
 19 20  1  0  0  0  0
 19 21  1  0  0  0  0
 21 22  1  0  0  0  0
 22 23  1  0  0  0  0
 23 24  1  0  0  0  0
 24 25  1  0  0  0  0
 24 26  1  0  0  0  0
 24 27  1  0  0  0  0
 23 28  1  0  0  0  0
 28 29  1  0  0  0  0
 28 30  1  0  0  0  0
 28 31  1  0  0  0  0
 23 32  1  0  0  0  0
 21 33  1  0  0  0  0
 32 33  1  0  0  0  0
 32 34  1  0  0  0  0
 34 35  1  0  0  0  0
 34 36  1  0  0  0  0
 34 37  1  0  0  0  0
 32 38  1  0  0  0  0
 38 39  1  0  0  0  0
 38 40  1  0  0  0  0
 38 41  1  0  0  0  0
 19 42  1  0  0  0  0
 42 43  1  0  0  0  0
 43 44  1  0  0  0  0
 44 45  1  0  0  0  0
 45 46  1  0  0  0  0
 45 47  1  0  0  0  0
 45 48  1  0  0  0  0
 44 49  1  0  0  0  0
 49 50  1  0  0  0  0
 49 51  1  0  0  0  0
 49 52  1  0  0  0  0
 44 53  1  0  0  0  0
 42 54  1  0  0  0  0
 53 54  1  0  0  0  0
 53 55  1  0  0  0  0
 55 56  1  0  0  0  0
 55 57  1  0  0  0  0
 55 58  1  0  0  0  0
 53 59  1  0  0  0  0
 59 60  1  0  0  0  0
 59 61  1  0  0  0  0
 59 62  1  0  0  0  0
 19 63  1  0  0  0  0
 63 64  1  0  0  0  0
 64 65  1  0  0  0  0
 65 66  1  0  0  0  0
 66 67  1  0  0  0  0
 66 68  1  0  0  0  0
 66 69  1  0  0  0  0
 65 70  1  0  0  0  0
 70 71  1  0  0  0  0
 70 72  1  0  0  0  0
 70 73  1  0  0  0  0
 65 74  1  0  0  0  0
 63 75  1  0  0  0  0
 74 75  1  0  0  0  0
 74 76  1  0  0  0  0
 76 77  1  0  0  0  0
 76 78  1  0  0  0  0
 76 79  1  0  0  0  0
 74 80  1  0  0  0  0
 80 81  1  0  0  0  0
 80 82  1  0  0  0  0
 80 83  1  0  0  0  0
  4 84  1  0  0  0  0
 14 85  1  0  0  0  0
 19 86  1  0  0  0  0
 20 86  1  0  0  0  0
 86 87  4  0  0  0  0
 86 88  4  0  0  0  0
 87 89  4  0  0  0  0
 87 90  1  0  0  0  0
 88 91  4  0  0  0  0
 88 92  1  0  0  0  0
 89 93  4  0  0  0  0
 91 93  4  0  0  0  0
 89 94  1  0  0  0  0
 90 95  3  0  0  0  0
 91 96  1  0  0  0  0
 93 97  1  0  0  0  0
M  END
