
  xtb     01142213493D
 xtb: 6.4.1 (1a32961)
106114  0     0  0            999 V2000
   -0.9224   -2.0401   -0.3521 N   0  0  0  0  0  0  0  0  0  0  0  0
   -2.1936   -1.6127   -0.4764 C   0  0  0  0  0  0  0  0  0  0  0  0
   -3.0788   -2.2389   -1.3645 C   0  0  0  0  0  0  0  0  0  0  0  0
   -2.6463   -3.2947   -2.1354 C   0  0  0  0  0  0  0  0  0  0  0  0
   -1.3253   -3.7176   -2.0044 C   0  0  0  0  0  0  0  0  0  0  0  0
   -0.5159   -3.0606   -1.1021 C   0  0  0  0  0  0  0  0  0  0  0  0
    0.5134   -3.3583   -0.9608 H   0  0  0  0  0  0  0  0  0  0  0  0
   -0.9425   -4.5387   -2.5884 H   0  0  0  0  0  0  0  0  0  0  0  0
   -4.0982   -1.9007   -1.4539 H   0  0  0  0  0  0  0  0  0  0  0  0
   -2.5761   -0.4707    0.3430 C   0  0  0  0  0  0  0  0  0  0  0  0
   -1.6198    0.0433    1.1457 N   0  0  0  0  0  0  0  0  0  0  0  0
   -1.9223    1.0888    1.9112 C   0  0  0  0  0  0  0  0  0  0  0  0
   -3.1672    1.6830    1.9338 C   0  0  0  0  0  0  0  0  0  0  0  0
   -4.1642    1.1689    1.1073 C   0  0  0  0  0  0  0  0  0  0  0  0
   -3.8604    0.0894    0.3068 C   0  0  0  0  0  0  0  0  0  0  0  0
   -4.6192   -0.3194   -0.3398 H   0  0  0  0  0  0  0  0  0  0  0  0
   -3.3604    2.5197    2.5856 H   0  0  0  0  0  0  0  0  0  0  0  0
   -1.1158    1.4528    2.5286 H   0  0  0  0  0  0  0  0  0  0  0  0
    0.4215   -0.8165    0.9133 Ir  0  0  0  0  0  0  0  0  0  0  0  0
    0.8726   -2.2303    1.5405 H   0  0  0  0  0  0  0  0  0  0  0  0
    0.3021    0.6401   -0.5809 B   0  0  0  0  0  0  0  0  0  0  0  0
   -0.3575    0.3462   -1.7619 O   0  0  0  0  0  0  0  0  0  0  0  0
   -0.5662    1.5432   -2.5181 C   0  0  0  0  0  0  0  0  0  0  0  0
   -0.3534    1.2602   -4.0029 C   0  0  0  0  0  0  0  0  0  0  0  0
    0.5984    0.7660   -4.1669 H   0  0  0  0  0  0  0  0  0  0  0  0
   -0.3872    2.1879   -4.5684 H   0  0  0  0  0  0  0  0  0  0  0  0
   -1.1435    0.6029   -4.3587 H   0  0  0  0  0  0  0  0  0  0  0  0
   -2.0228    1.9734   -2.2900 C   0  0  0  0  0  0  0  0  0  0  0  0
   -2.2717    2.8483   -2.8834 H   0  0  0  0  0  0  0  0  0  0  0  0
   -2.6773    1.1523   -2.5765 H   0  0  0  0  0  0  0  0  0  0  0  0
   -2.1912    2.1858   -1.2360 H   0  0  0  0  0  0  0  0  0  0  0  0
    0.4609    2.5320   -1.8772 C   0  0  0  0  0  0  0  0  0  0  0  0
    0.6532    1.9725   -0.5714 O   0  0  0  0  0  0  0  0  0  0  0  0
    1.8235    2.4950   -2.5803 C   0  0  0  0  0  0  0  0  0  0  0  0
    2.1880    1.4705   -2.5961 H   0  0  0  0  0  0  0  0  0  0  0  0
    1.7603    2.8943   -3.5885 H   0  0  0  0  0  0  0  0  0  0  0  0
    2.5295    3.0906   -2.0066 H   0  0  0  0  0  0  0  0  0  0  0  0
   -0.0175    3.9781   -1.7633 C   0  0  0  0  0  0  0  0  0  0  0  0
   -0.8799    4.0580   -1.1084 H   0  0  0  0  0  0  0  0  0  0  0  0
    0.7815    4.5868   -1.3470 H   0  0  0  0  0  0  0  0  0  0  0  0
   -0.2735    4.3633   -2.7472 H   0  0  0  0  0  0  0  0  0  0  0  0
    1.5378    0.6960    1.8239 B   0  0  0  0  0  0  0  0  0  0  0  0
    2.8747    0.9967    1.6786 O   0  0  0  0  0  0  0  0  0  0  0  0
    3.1774    2.2515    2.3048 C   0  0  0  0  0  0  0  0  0  0  0  0
    4.5200    2.1538    3.0294 C   0  0  0  0  0  0  0  0  0  0  0  0
    4.5368    1.3118    3.7131 H   0  0  0  0  0  0  0  0  0  0  0  0
    5.3091    2.0101    2.2957 H   0  0  0  0  0  0  0  0  0  0  0  0
    4.7160    3.0715    3.5772 H   0  0  0  0  0  0  0  0  0  0  0  0
    3.2815    3.2880    1.1802 C   0  0  0  0  0  0  0  0  0  0  0  0
    3.4832    4.2816    1.5691 H   0  0  0  0  0  0  0  0  0  0  0  0
    4.0914    2.9957    0.5156 H   0  0  0  0  0  0  0  0  0  0  0  0
    2.3588    3.2805    0.6063 H   0  0  0  0  0  0  0  0  0  0  0  0
    1.9394    2.4826    3.2395 C   0  0  0  0  0  0  0  0  0  0  0  0
    0.9589    1.5896    2.6965 O   0  0  0  0  0  0  0  0  0  0  0  0
    1.3808    3.9051    3.2257 C   0  0  0  0  0  0  0  0  0  0  0  0
    1.0296    4.1700    2.2339 H   0  0  0  0  0  0  0  0  0  0  0  0
    0.5389    3.9607    3.9117 H   0  0  0  0  0  0  0  0  0  0  0  0
    2.1408    4.6120    3.5472 H   0  0  0  0  0  0  0  0  0  0  0  0
    2.1845    2.0563    4.6927 C   0  0  0  0  0  0  0  0  0  0  0  0
    2.5306    1.0282    4.7288 H   0  0  0  0  0  0  0  0  0  0  0  0
    2.9054    2.7096    5.1745 H   0  0  0  0  0  0  0  0  0  0  0  0
    1.2422    2.1090    5.2330 H   0  0  0  0  0  0  0  0  0  0  0  0
    2.2782   -1.3309    0.1741 B   0  0  0  0  0  0  0  0  0  0  0  0
    3.1875   -2.2340    0.6808 O   0  0  0  0  0  0  0  0  0  0  0  0
    4.4321   -2.1285   -0.0234 C   0  0  0  0  0  0  0  0  0  0  0  0
    5.3605   -1.2862    0.8578 C   0  0  0  0  0  0  0  0  0  0  0  0
    4.8838   -0.3310    1.0588 H   0  0  0  0  0  0  0  0  0  0  0  0
    5.4965   -1.8009    1.8054 H   0  0  0  0  0  0  0  0  0  0  0  0
    6.3292   -1.1412    0.3900 H   0  0  0  0  0  0  0  0  0  0  0  0
    5.0335   -3.5202   -0.2141 C   0  0  0  0  0  0  0  0  0  0  0  0
    5.2905   -3.9292    0.7593 H   0  0  0  0  0  0  0  0  0  0  0  0
    5.9343   -3.4572   -0.8180 H   0  0  0  0  0  0  0  0  0  0  0  0
    4.3268   -4.1942   -0.6868 H   0  0  0  0  0  0  0  0  0  0  0  0
    4.0207   -1.3963   -1.3482 C   0  0  0  0  0  0  0  0  0  0  0  0
    2.7605   -0.8038   -1.0033 O   0  0  0  0  0  0  0  0  0  0  0  0
    4.9822   -0.2982   -1.7997 C   0  0  0  0  0  0  0  0  0  0  0  0
    5.9775   -0.7053   -1.9547 H   0  0  0  0  0  0  0  0  0  0  0  0
    4.6254    0.1234   -2.7361 H   0  0  0  0  0  0  0  0  0  0  0  0
    5.0182    0.4969   -1.0632 H   0  0  0  0  0  0  0  0  0  0  0  0
    3.7688   -2.3567   -2.5187 C   0  0  0  0  0  0  0  0  0  0  0  0
    3.0633   -3.1295   -2.2264 H   0  0  0  0  0  0  0  0  0  0  0  0
    3.3288   -1.7953   -3.3394 H   0  0  0  0  0  0  0  0  0  0  0  0
    4.6946   -2.8117   -2.8573 H   0  0  0  0  0  0  0  0  0  0  0  0
   -3.3175   -3.7813   -2.8268 H   0  0  0  0  0  0  0  0  0  0  0  0
   -5.1535    1.6012    1.0956 H   0  0  0  0  0  0  0  0  0  0  0  0
    0.2359   -1.6814    2.9603 C   0  0  0  0  0  0  0  0  0  0  0  0
   -1.0973   -1.9281    3.2594 C   0  0  0  0  0  0  0  0  0  0  0  0
    1.1642   -1.6830    4.0104 C   0  0  0  0  0  0  0  0  0  0  0  0
   -1.5661   -1.9971    4.5722 C   0  0  0  0  0  0  0  0  0  0  0  0
   -1.8141   -2.1017    2.4695 H   0  0  0  0  0  0  0  0  0  0  0  0
    2.6401   -1.6903    3.7606 C   0  0  0  0  0  0  0  0  0  0  0  0
    0.6976   -1.7525    5.3184 C   0  0  0  0  0  0  0  0  0  0  0  0
   -2.9888   -2.2018    4.8363 C   0  0  0  0  0  0  0  0  0  0  0  0
   -0.6477   -1.8771    5.6098 C   0  0  0  0  0  0  0  0  0  0  0  0
    2.9277   -0.8637    3.1194 H   0  0  0  0  0  0  0  0  0  0  0  0
    2.9116   -2.5979    3.2249 H   0  0  0  0  0  0  0  0  0  0  0  0
    3.1934   -1.6519    4.6967 H   0  0  0  0  0  0  0  0  0  0  0  0
    1.4081   -1.7216    6.1334 H   0  0  0  0  0  0  0  0  0  0  0  0
   -3.9929   -1.7656    4.0206 C   0  0  0  0  0  0  0  0  0  0  0  0
   -3.5103   -2.8845    5.9746 C   0  0  0  0  0  0  0  0  0  0  0  0
   -0.9789   -1.8981    6.6376 H   0  0  0  0  0  0  0  0  0  0  0  0
   -5.5557   -2.1664    4.6138 S   0  0  0  0  0  0  0  0  0  0  0  0
   -3.9112   -1.2025    3.1123 H   0  0  0  0  0  0  0  0  0  0  0  0
   -4.8619   -2.9459    5.9853 C   0  0  0  0  0  0  0  0  0  0  0  0
   -2.8909   -3.3262    6.7341 H   0  0  0  0  0  0  0  0  0  0  0  0
   -5.5059   -3.4024    6.7103 H   0  0  0  0  0  0  0  0  0  0  0  0
  1  2  4  0  0  0  0
  2  3  4  0  0  0  0
  3  4  4  0  0  0  0
  4  5  4  0  0  0  0
  1  6  4  0  0  0  0
  5  6  4  0  0  0  0
  6  7  1  0  0  0  0
  5  8  1  0  0  0  0
  3  9  1  0  0  0  0
  2 10  1  0  0  0  0
 10 11  4  0  0  0  0
 11 12  4  0  0  0  0
 12 13  4  0  0  0  0
 13 14  4  0  0  0  0
 10 15  4  0  0  0  0
 14 15  4  0  0  0  0
 15 16  1  0  0  0  0
 13 17  1  0  0  0  0
 12 18  1  0  0  0  0
  1 19  1  0  0  0  0
 11 19  1  0  0  0  0
 19 20  1  0  0  0  0
 19 21  1  0  0  0  0
 21 22  1  0  0  0  0
 22 23  1  0  0  0  0
 23 24  1  0  0  0  0
 24 25  1  0  0  0  0
 24 26  1  0  0  0  0
 24 27  1  0  0  0  0
 23 28  1  0  0  0  0
 28 29  1  0  0  0  0
 28 30  1  0  0  0  0
 28 31  1  0  0  0  0
 23 32  1  0  0  0  0
 21 33  1  0  0  0  0
 32 33  1  0  0  0  0
 32 34  1  0  0  0  0
 34 35  1  0  0  0  0
 34 36  1  0  0  0  0
 34 37  1  0  0  0  0
 32 38  1  0  0  0  0
 38 39  1  0  0  0  0
 38 40  1  0  0  0  0
 38 41  1  0  0  0  0
 19 42  1  0  0  0  0
 42 43  1  0  0  0  0
 43 44  1  0  0  0  0
 44 45  1  0  0  0  0
 45 46  1  0  0  0  0
 45 47  1  0  0  0  0
 45 48  1  0  0  0  0
 44 49  1  0  0  0  0
 49 50  1  0  0  0  0
 49 51  1  0  0  0  0
 49 52  1  0  0  0  0
 44 53  1  0  0  0  0
 42 54  1  0  0  0  0
 53 54  1  0  0  0  0
 53 55  1  0  0  0  0
 55 56  1  0  0  0  0
 55 57  1  0  0  0  0
 55 58  1  0  0  0  0
 53 59  1  0  0  0  0
 59 60  1  0  0  0  0
 59 61  1  0  0  0  0
 59 62  1  0  0  0  0
 19 63  1  0  0  0  0
 63 64  1  0  0  0  0
 64 65  1  0  0  0  0
 65 66  1  0  0  0  0
 66 67  1  0  0  0  0
 66 68  1  0  0  0  0
 66 69  1  0  0  0  0
 65 70  1  0  0  0  0
 70 71  1  0  0  0  0
 70 72  1  0  0  0  0
 70 73  1  0  0  0  0
 65 74  1  0  0  0  0
 63 75  1  0  0  0  0
 74 75  1  0  0  0  0
 74 76  1  0  0  0  0
 76 77  1  0  0  0  0
 76 78  1  0  0  0  0
 76 79  1  0  0  0  0
 74 80  1  0  0  0  0
 80 81  1  0  0  0  0
 80 82  1  0  0  0  0
 80 83  1  0  0  0  0
  4 84  1  0  0  0  0
 14 85  1  0  0  0  0
 19 86  1  0  0  0  0
 20 86  1  0  0  0  0
 86 87  4  0  0  0  0
 86 88  4  0  0  0  0
 87 89  4  0  0  0  0
 87 90  1  0  0  0  0
 88 91  1  0  0  0  0
 88 92  4  0  0  0  0
 89 93  1  0  0  0  0
 89 94  4  0  0  0  0
 92 94  4  0  0  0  0
 91 95  1  0  0  0  0
 91 96  1  0  0  0  0
 91 97  1  0  0  0  0
 92 98  1  0  0  0  0
 93 99  2  0  0  0  0
 93100  4  0  0  0  0
 94101  1  0  0  0  0
 99102  1  0  0  0  0
 99103  1  0  0  0  0
100104  2  0  0  0  0
102104  1  0  0  0  0
100105  1  0  0  0  0
104106  1  0  0  0  0
M  END
