
  xtb     01142215163D
 xtb: 6.4.1 (1a32961)
107115  0     0  0            999 V2000
   -0.8809   -1.8777   -0.5499 N   0  0  0  0  0  0  0  0  0  0  0  0
   -2.0945   -1.3200   -0.7348 C   0  0  0  0  0  0  0  0  0  0  0  0
   -2.8948   -1.6845   -1.8242 C   0  0  0  0  0  0  0  0  0  0  0  0
   -2.4463   -2.6293   -2.7206 C   0  0  0  0  0  0  0  0  0  0  0  0
   -1.1931   -3.2011   -2.5142 C   0  0  0  0  0  0  0  0  0  0  0  0
   -0.4582   -2.7885   -1.4232 C   0  0  0  0  0  0  0  0  0  0  0  0
    0.5190   -3.2046   -1.2224 H   0  0  0  0  0  0  0  0  0  0  0  0
   -0.8029   -3.9463   -3.1882 H   0  0  0  0  0  0  0  0  0  0  0  0
   -3.8568   -1.2237   -1.9763 H   0  0  0  0  0  0  0  0  0  0  0  0
   -2.5014   -0.3214    0.2445 C   0  0  0  0  0  0  0  0  0  0  0  0
   -1.5761    0.0388    1.1615 N   0  0  0  0  0  0  0  0  0  0  0  0
   -1.9083    0.9452    2.0789 C   0  0  0  0  0  0  0  0  0  0  0  0
   -3.1498    1.5425    2.1477 C   0  0  0  0  0  0  0  0  0  0  0  0
   -4.1134    1.1840    1.2081 C   0  0  0  0  0  0  0  0  0  0  0  0
   -3.7806    0.2482    0.2531 C   0  0  0  0  0  0  0  0  0  0  0  0
   -4.5164   -0.0508   -0.4749 H   0  0  0  0  0  0  0  0  0  0  0  0
   -3.3646    2.2622    2.9209 H   0  0  0  0  0  0  0  0  0  0  0  0
   -1.1295    1.1995    2.7811 H   0  0  0  0  0  0  0  0  0  0  0  0
    0.4215   -0.8165    0.9133 Ir  0  0  0  0  0  0  0  0  0  0  0  0
    0.8726   -2.2303    1.5405 H   0  0  0  0  0  0  0  0  0  0  0  0
    0.4457    0.7363   -0.5041 B   0  0  0  0  0  0  0  0  0  0  0  0
   -0.3431    0.6644   -1.6405 O   0  0  0  0  0  0  0  0  0  0  0  0
   -0.4148    1.9491   -2.2683 C   0  0  0  0  0  0  0  0  0  0  0  0
   -0.3937    1.7869   -3.7858 C   0  0  0  0  0  0  0  0  0  0  0  0
    0.4502    1.1815   -4.0996 H   0  0  0  0  0  0  0  0  0  0  0  0
   -0.3416    2.7618   -4.2636 H   0  0  0  0  0  0  0  0  0  0  0  0
   -1.3065    1.2881   -4.1032 H   0  0  0  0  0  0  0  0  0  0  0  0
   -1.7507    2.5790   -1.8474 C   0  0  0  0  0  0  0  0  0  0  0  0
   -1.8969    3.5446   -2.3223 H   0  0  0  0  0  0  0  0  0  0  0  0
   -2.5584    1.9123   -2.1431 H   0  0  0  0  0  0  0  0  0  0  0  0
   -1.7868    2.6919   -0.7656 H   0  0  0  0  0  0  0  0  0  0  0  0
    0.8191    2.6933   -1.6618 C   0  0  0  0  0  0  0  0  0  0  0  0
    1.0408    1.9750   -0.4406 O   0  0  0  0  0  0  0  0  0  0  0  0
    2.0841    2.5265   -2.5123 C   0  0  0  0  0  0  0  0  0  0  0  0
    2.2748    1.4673   -2.6668 H   0  0  0  0  0  0  0  0  0  0  0  0
    1.9910    3.0403   -3.4648 H   0  0  0  0  0  0  0  0  0  0  0  0
    2.9290    2.9405   -1.9668 H   0  0  0  0  0  0  0  0  0  0  0  0
    0.5966    4.1748   -1.3621 C   0  0  0  0  0  0  0  0  0  0  0  0
   -0.1676    4.3112   -0.6029 H   0  0  0  0  0  0  0  0  0  0  0  0
    1.5234    4.6072   -0.9923 H   0  0  0  0  0  0  0  0  0  0  0  0
    0.3051    4.6990   -2.2687 H   0  0  0  0  0  0  0  0  0  0  0  0
    1.5554    0.6359    1.9017 B   0  0  0  0  0  0  0  0  0  0  0  0
    2.9215    0.7507    1.9508 O   0  0  0  0  0  0  0  0  0  0  0  0
    3.3018    1.9881    2.5693 C   0  0  0  0  0  0  0  0  0  0  0  0
    4.4703    1.7413    3.5237 C   0  0  0  0  0  0  0  0  0  0  0  0
    4.2287    0.9686    4.2457 H   0  0  0  0  0  0  0  0  0  0  0  0
    5.3320    1.4091    2.9503 H   0  0  0  0  0  0  0  0  0  0  0  0
    4.7285    2.6587    4.0456 H   0  0  0  0  0  0  0  0  0  0  0  0
    3.7575    2.9192    1.4397 C   0  0  0  0  0  0  0  0  0  0  0  0
    4.0270    3.9016    1.8153 H   0  0  0  0  0  0  0  0  0  0  0  0
    4.6250    2.4772    0.9545 H   0  0  0  0  0  0  0  0  0  0  0  0
    2.9625    2.9947    0.7031 H   0  0  0  0  0  0  0  0  0  0  0  0
    1.9730    2.4591    3.2612 C   0  0  0  0  0  0  0  0  0  0  0  0
    0.9740    1.6492    2.6277 O   0  0  0  0  0  0  0  0  0  0  0  0
    1.6270    3.9320    3.0447 C   0  0  0  0  0  0  0  0  0  0  0  0
    1.4861    4.1384    1.9892 H   0  0  0  0  0  0  0  0  0  0  0  0
    0.6980    4.1573    3.5629 H   0  0  0  0  0  0  0  0  0  0  0  0
    2.4132    4.5668    3.4438 H   0  0  0  0  0  0  0  0  0  0  0  0
    1.9218    2.1492    4.7630 C   0  0  0  0  0  0  0  0  0  0  0  0
    2.0819    1.0887    4.9353 H   0  0  0  0  0  0  0  0  0  0  0  0
    2.6604    2.7292    5.3075 H   0  0  0  0  0  0  0  0  0  0  0  0
    0.9322    2.3993    5.1388 H   0  0  0  0  0  0  0  0  0  0  0  0
    2.2782   -1.3309    0.1741 B   0  0  0  0  0  0  0  0  0  0  0  0
    3.1997   -2.1844    0.7389 O   0  0  0  0  0  0  0  0  0  0  0  0
    4.4358   -2.1398    0.0142 C   0  0  0  0  0  0  0  0  0  0  0  0
    5.3999   -1.2866    0.8452 C   0  0  0  0  0  0  0  0  0  0  0  0
    4.9379   -0.3230    1.0390 H   0  0  0  0  0  0  0  0  0  0  0  0
    5.5586   -1.7794    1.8011 H   0  0  0  0  0  0  0  0  0  0  0  0
    6.3562   -1.1631    0.3464 H   0  0  0  0  0  0  0  0  0  0  0  0
    4.9992   -3.5552   -0.1165 C   0  0  0  0  0  0  0  0  0  0  0  0
    5.2295   -3.9329    0.8761 H   0  0  0  0  0  0  0  0  0  0  0  0
    5.9096   -3.5415   -0.7092 H   0  0  0  0  0  0  0  0  0  0  0  0
    4.2796   -4.2273   -0.5718 H   0  0  0  0  0  0  0  0  0  0  0  0
    4.0246   -1.4624   -1.3421 C   0  0  0  0  0  0  0  0  0  0  0  0
    2.7528   -0.8729   -1.0351 O   0  0  0  0  0  0  0  0  0  0  0  0
    4.9740   -0.3667   -1.8258 C   0  0  0  0  0  0  0  0  0  0  0  0
    5.9733   -0.7669   -1.9724 H   0  0  0  0  0  0  0  0  0  0  0  0
    4.6102    0.0241   -2.7728 H   0  0  0  0  0  0  0  0  0  0  0  0
    5.0035    0.4500   -1.1128 H   0  0  0  0  0  0  0  0  0  0  0  0
    3.7997   -2.4655   -2.4818 C   0  0  0  0  0  0  0  0  0  0  0  0
    3.0915   -3.2309   -2.1770 H   0  0  0  0  0  0  0  0  0  0  0  0
    3.3765   -1.9361   -3.3321 H   0  0  0  0  0  0  0  0  0  0  0  0
    4.7341   -2.9286   -2.7834 H   0  0  0  0  0  0  0  0  0  0  0  0
   -3.0529   -2.9169   -3.5658 H   0  0  0  0  0  0  0  0  0  0  0  0
   -5.0989    1.6239    1.2293 H   0  0  0  0  0  0  0  0  0  0  0  0
    0.2359   -1.6814    2.9603 C   0  0  0  0  0  0  0  0  0  0  0  0
   -0.9786   -2.2333    3.4577 C   0  0  0  0  0  0  0  0  0  0  0  0
    1.2457   -1.4965    3.8830 C   0  0  0  0  0  0  0  0  0  0  0  0
   -1.2117   -2.4137    4.7362 N   0  0  0  0  0  0  0  0  0  0  0  0
   -2.0759   -2.7167    2.5561 C   0  0  0  0  0  0  0  0  0  0  0  0
    1.0276   -1.7029    5.2587 C   0  0  0  0  0  0  0  0  0  0  0  0
    2.2340   -1.2148    3.5489 H   0  0  0  0  0  0  0  0  0  0  0  0
   -0.2627   -2.1408    5.6517 C   0  0  0  0  0  0  0  0  0  0  0  0
   -2.5583   -3.5763    3.0157 H   0  0  0  0  0  0  0  0  0  0  0  0
   -1.6819   -2.9879    1.5813 H   0  0  0  0  0  0  0  0  0  0  0  0
   -2.8318   -1.9436    2.4297 H   0  0  0  0  0  0  0  0  0  0  0  0
    2.0159   -1.5343    6.2508 C   0  0  0  0  0  0  0  0  0  0  0  0
   -0.5324   -2.3708    7.0158 C   0  0  0  0  0  0  0  0  0  0  0  0
    1.7271   -1.7734    7.5635 C   0  0  0  0  0  0  0  0  0  0  0  0
    3.0047   -1.2171    5.9492 H   0  0  0  0  0  0  0  0  0  0  0  0
    0.4414   -2.1961    7.9652 C   0  0  0  0  0  0  0  0  0  0  0  0
   -1.5235   -2.7036    7.2851 H   0  0  0  0  0  0  0  0  0  0  0  0
    2.4902   -1.6459    8.3183 H   0  0  0  0  0  0  0  0  0  0  0  0
    0.1825   -2.4619    9.4175 C   0  0  0  0  0  0  0  0  0  0  0  0
    0.8419   -3.2512    9.7768 H   0  0  0  0  0  0  0  0  0  0  0  0
   -0.8476   -2.7677    9.5780 H   0  0  0  0  0  0  0  0  0  0  0  0
    0.3812   -1.5684   10.0078 H   0  0  0  0  0  0  0  0  0  0  0  0
  1  2  4  0  0  0  0
  2  3  4  0  0  0  0
  3  4  4  0  0  0  0
  4  5  4  0  0  0  0
  1  6  4  0  0  0  0
  5  6  4  0  0  0  0
  6  7  1  0  0  0  0
  5  8  1  0  0  0  0
  3  9  1  0  0  0  0
  2 10  1  0  0  0  0
 10 11  4  0  0  0  0
 11 12  4  0  0  0  0
 12 13  4  0  0  0  0
 13 14  4  0  0  0  0
 10 15  4  0  0  0  0
 14 15  4  0  0  0  0
 15 16  1  0  0  0  0
 13 17  1  0  0  0  0
 12 18  1  0  0  0  0
  1 19  1  0  0  0  0
 11 19  1  0  0  0  0
 19 20  1  0  0  0  0
 19 21  1  0  0  0  0
 21 22  1  0  0  0  0
 22 23  1  0  0  0  0
 23 24  1  0  0  0  0
 24 25  1  0  0  0  0
 24 26  1  0  0  0  0
 24 27  1  0  0  0  0
 23 28  1  0  0  0  0
 28 29  1  0  0  0  0
 28 30  1  0  0  0  0
 28 31  1  0  0  0  0
 23 32  1  0  0  0  0
 21 33  1  0  0  0  0
 32 33  1  0  0  0  0
 32 34  1  0  0  0  0
 34 35  1  0  0  0  0
 34 36  1  0  0  0  0
 34 37  1  0  0  0  0
 32 38  1  0  0  0  0
 38 39  1  0  0  0  0
 38 40  1  0  0  0  0
 38 41  1  0  0  0  0
 19 42  1  0  0  0  0
 42 43  1  0  0  0  0
 43 44  1  0  0  0  0
 44 45  1  0  0  0  0
 45 46  1  0  0  0  0
 45 47  1  0  0  0  0
 45 48  1  0  0  0  0
 44 49  1  0  0  0  0
 49 50  1  0  0  0  0
 49 51  1  0  0  0  0
 49 52  1  0  0  0  0
 44 53  1  0  0  0  0
 42 54  1  0  0  0  0
 53 54  1  0  0  0  0
 53 55  1  0  0  0  0
 55 56  1  0  0  0  0
 55 57  1  0  0  0  0
 55 58  1  0  0  0  0
 53 59  1  0  0  0  0
 59 60  1  0  0  0  0
 59 61  1  0  0  0  0
 59 62  1  0  0  0  0
 19 63  1  0  0  0  0
 63 64  1  0  0  0  0
 64 65  1  0  0  0  0
 65 66  1  0  0  0  0
 66 67  1  0  0  0  0
 66 68  1  0  0  0  0
 66 69  1  0  0  0  0
 65 70  1  0  0  0  0
 70 71  1  0  0  0  0
 70 72  1  0  0  0  0
 70 73  1  0  0  0  0
 65 74  1  0  0  0  0
 63 75  1  0  0  0  0
 74 75  1  0  0  0  0
 74 76  1  0  0  0  0
 76 77  1  0  0  0  0
 76 78  1  0  0  0  0
 76 79  1  0  0  0  0
 74 80  1  0  0  0  0
 80 81  1  0  0  0  0
 80 82  1  0  0  0  0
 80 83  1  0  0  0  0
  4 84  1  0  0  0  0
 14 85  1  0  0  0  0
 19 86  1  0  0  0  0
 20 86  1  0  0  0  0
 86 87  4  0  0  0  0
 86 88  4  0  0  0  0
 87 89  2  0  0  0  0
 87 90  1  0  0  0  0
 88 91  4  0  0  0  0
 88 92  1  0  0  0  0
 89 93  4  0  0  0  0
 91 93  4  0  0  0  0
 90 94  1  0  0  0  0
 90 95  1  0  0  0  0
 90 96  1  0  0  0  0
 91 97  4  0  0  0  0
 93 98  4  0  0  0  0
 97 99  2  0  0  0  0
 97100  1  0  0  0  0
 98101  2  0  0  0  0
 99101  4  0  0  0  0
 98102  1  0  0  0  0
 99103  1  0  0  0  0
101104  1  0  0  0  0
104105  1  0  0  0  0
104106  1  0  0  0  0
104107  1  0  0  0  0
M  END
