   14
Created with kallisto
C      0.9966   -1.4491   -0.0181
C      2.1532   -0.6730   -0.0761
C     -0.2311   -0.7673    0.0150
Br     3.8470   -1.5042   -0.1479
C      2.0477    0.7137   -0.0886
C     -0.1967    0.6235   -0.0045
C     -1.6019   -1.1432    0.0579
N      0.8890    1.4175   -0.0507
H      2.9395    1.3348   -0.1343
N     -1.4869    1.0772    0.0281
C     -2.3524    0.0136    0.0580
H     -1.9971   -2.1505    0.0796
H     -1.7348    2.0563    0.0204
H     -3.4228    0.1725    0.0754
