
  xtb     01142214183D
 xtb: 6.4.1 (1a32961)
 99107  0     0  0            999 V2000
   -0.9370   -2.0259   -0.3446 N   0  0  0  0  0  0  0  0  0  0  0  0
   -2.1824   -1.5433   -0.5135 C   0  0  0  0  0  0  0  0  0  0  0  0
   -3.0803   -2.1611   -1.3939 C   0  0  0  0  0  0  0  0  0  0  0  0
   -2.6867   -3.2708   -2.1089 C   0  0  0  0  0  0  0  0  0  0  0  0
   -1.3922   -3.7529   -1.9308 C   0  0  0  0  0  0  0  0  0  0  0  0
   -0.5672   -3.0975   -1.0411 C   0  0  0  0  0  0  0  0  0  0  0  0
    0.4426   -3.4403   -0.8652 H   0  0  0  0  0  0  0  0  0  0  0  0
   -1.0403   -4.6180   -2.4688 H   0  0  0  0  0  0  0  0  0  0  0  0
   -4.0798   -1.7780   -1.5167 H   0  0  0  0  0  0  0  0  0  0  0  0
   -2.5247   -0.3569    0.2605 C   0  0  0  0  0  0  0  0  0  0  0  0
   -1.5744    0.1102    1.0984 N   0  0  0  0  0  0  0  0  0  0  0  0
   -1.8439    1.1893    1.8306 C   0  0  0  0  0  0  0  0  0  0  0  0
   -3.0445    1.8668    1.7764 C   0  0  0  0  0  0  0  0  0  0  0  0
   -4.0286    1.4077    0.9048 C   0  0  0  0  0  0  0  0  0  0  0  0
   -3.7613    0.2900    0.1441 C   0  0  0  0  0  0  0  0  0  0  0  0
   -4.5090   -0.0767   -0.5394 H   0  0  0  0  0  0  0  0  0  0  0  0
   -3.2104    2.7308    2.3993 H   0  0  0  0  0  0  0  0  0  0  0  0
   -1.0462    1.5142    2.4809 H   0  0  0  0  0  0  0  0  0  0  0  0
    0.4215   -0.8165    0.9133 Ir  0  0  0  0  0  0  0  0  0  0  0  0
    0.8726   -2.2303    1.5405 H   0  0  0  0  0  0  0  0  0  0  0  0
    0.4174    0.5916   -0.6219 B   0  0  0  0  0  0  0  0  0  0  0  0
   -0.1608    0.2744   -1.8351 O   0  0  0  0  0  0  0  0  0  0  0  0
   -0.2572    1.4441   -2.6555 C   0  0  0  0  0  0  0  0  0  0  0  0
    0.0942    1.0881   -4.0981 C   0  0  0  0  0  0  0  0  0  0  0  0
    1.0452    0.5682   -4.1433 H   0  0  0  0  0  0  0  0  0  0  0  0
    0.1385    1.9883   -4.7057 H   0  0  0  0  0  0  0  0  0  0  0  0
   -0.6724    0.4300   -4.5002 H   0  0  0  0  0  0  0  0  0  0  0  0
   -1.7165    1.9180   -2.5947 C   0  0  0  0  0  0  0  0  0  0  0  0
   -1.8770    2.7766   -3.2399 H   0  0  0  0  0  0  0  0  0  0  0  0
   -2.3598    1.1032   -2.9214 H   0  0  0  0  0  0  0  0  0  0  0  0
   -1.9877    2.1717   -1.5718 H   0  0  0  0  0  0  0  0  0  0  0  0
    0.7337    2.4330   -1.9569 C   0  0  0  0  0  0  0  0  0  0  0  0
    0.8059    1.9118   -0.6221 O   0  0  0  0  0  0  0  0  0  0  0  0
    2.1503    2.3500   -2.5380 C   0  0  0  0  0  0  0  0  0  0  0  0
    2.4981    1.3217   -2.4764 H   0  0  0  0  0  0  0  0  0  0  0  0
    2.1807    2.7053   -3.5639 H   0  0  0  0  0  0  0  0  0  0  0  0
    2.8130    2.9626   -1.9312 H   0  0  0  0  0  0  0  0  0  0  0  0
    0.2778    3.8903   -1.9257 C   0  0  0  0  0  0  0  0  0  0  0  0
   -0.6434    4.0048   -1.3628 H   0  0  0  0  0  0  0  0  0  0  0  0
    1.0449    4.4927   -1.4452 H   0  0  0  0  0  0  0  0  0  0  0  0
    0.1307    4.2547   -2.9392 H   0  0  0  0  0  0  0  0  0  0  0  0
    1.5887    0.6261    1.8787 B   0  0  0  0  0  0  0  0  0  0  0  0
    2.9488    0.8044    1.8061 O   0  0  0  0  0  0  0  0  0  0  0  0
    3.3209    2.0491    2.4134 C   0  0  0  0  0  0  0  0  0  0  0  0
    4.6124    1.8677    3.2090 C   0  0  0  0  0  0  0  0  0  0  0  0
    4.5233    1.0414    3.9064 H   0  0  0  0  0  0  0  0  0  0  0  0
    5.4264    1.6485    2.5227 H   0  0  0  0  0  0  0  0  0  0  0  0
    4.8489    2.7794    3.7507 H   0  0  0  0  0  0  0  0  0  0  0  0
    3.5575    3.0371    1.2648 C   0  0  0  0  0  0  0  0  0  0  0  0
    3.8260    4.0226    1.6330 H   0  0  0  0  0  0  0  0  0  0  0  0
    4.3662    2.6581    0.6438 H   0  0  0  0  0  0  0  0  0  0  0  0
    2.6614    3.0874    0.6515 H   0  0  0  0  0  0  0  0  0  0  0  0
    2.0618    2.4049    3.2769 C   0  0  0  0  0  0  0  0  0  0  0  0
    1.0378    1.5848    2.6988 O   0  0  0  0  0  0  0  0  0  0  0  0
    1.6300    3.8692    3.2085 C   0  0  0  0  0  0  0  0  0  0  0  0
    1.3484    4.1402    2.1963 H   0  0  0  0  0  0  0  0  0  0  0  0
    0.7670    4.0150    3.8535 H   0  0  0  0  0  0  0  0  0  0  0  0
    2.4350    4.5135    3.5511 H   0  0  0  0  0  0  0  0  0  0  0  0
    2.1985    1.9895    4.7472 C   0  0  0  0  0  0  0  0  0  0  0  0
    2.4547    0.9358    4.8174 H   0  0  0  0  0  0  0  0  0  0  0  0
    2.9488    2.5874    5.2550 H   0  0  0  0  0  0  0  0  0  0  0  0
    1.2403    2.1335    5.2412 H   0  0  0  0  0  0  0  0  0  0  0  0
    2.2782   -1.3309    0.1741 B   0  0  0  0  0  0  0  0  0  0  0  0
    3.1210   -2.2836    0.7087 O   0  0  0  0  0  0  0  0  0  0  0  0
    4.3989   -2.2491    0.0604 C   0  0  0  0  0  0  0  0  0  0  0  0
    5.3555   -1.5269    1.0158 C   0  0  0  0  0  0  0  0  0  0  0  0
    4.9403   -0.5542    1.2638 H   0  0  0  0  0  0  0  0  0  0  0  0
    5.4298   -2.1069    1.9327 H   0  0  0  0  0  0  0  0  0  0  0  0
    6.3460   -1.4220    0.5845 H   0  0  0  0  0  0  0  0  0  0  0  0
    4.8912   -3.6793   -0.1612 C   0  0  0  0  0  0  0  0  0  0  0  0
    5.0346   -4.1525    0.8067 H   0  0  0  0  0  0  0  0  0  0  0  0
    5.8381   -3.6711   -0.6936 H   0  0  0  0  0  0  0  0  0  0  0  0
    4.1674   -4.2657   -0.7172 H   0  0  0  0  0  0  0  0  0  0  0  0
    4.1032   -1.4351   -1.2493 C   0  0  0  0  0  0  0  0  0  0  0  0
    2.8487   -0.7991   -0.9580 O   0  0  0  0  0  0  0  0  0  0  0  0
    5.1392   -0.3621   -1.5812 C   0  0  0  0  0  0  0  0  0  0  0  0
    6.1222   -0.8086   -1.7018 H   0  0  0  0  0  0  0  0  0  0  0  0
    4.8602    0.1270   -2.5111 H   0  0  0  0  0  0  0  0  0  0  0  0
    5.1672    0.3888   -0.7993 H   0  0  0  0  0  0  0  0  0  0  0  0
    3.8860   -2.3228   -2.4819 C   0  0  0  0  0  0  0  0  0  0  0  0
    3.1103   -3.0574   -2.2846 H   0  0  0  0  0  0  0  0  0  0  0  0
    3.5515   -1.6970   -3.3057 H   0  0  0  0  0  0  0  0  0  0  0  0
    4.8052   -2.8238   -2.7697 H   0  0  0  0  0  0  0  0  0  0  0  0
   -3.3683   -3.7544   -2.7920 H   0  0  0  0  0  0  0  0  0  0  0  0
   -4.9789    1.9135    0.8244 H   0  0  0  0  0  0  0  0  0  0  0  0
    0.2359   -1.6814    2.9603 C   0  0  0  0  0  0  0  0  0  0  0  0
   -1.0209   -1.8667    3.4135 C   0  0  0  0  0  0  0  0  0  0  0  0
    1.1876   -1.7090    4.0378 C   0  0  0  0  0  0  0  0  0  0  0  0
   -1.1522   -1.9917    5.1581 S   0  0  0  0  0  0  0  0  0  0  0  0
   -1.9401   -1.9467    2.8656 H   0  0  0  0  0  0  0  0  0  0  0  0
    2.5811   -1.6503    3.9765 C   0  0  0  0  0  0  0  0  0  0  0  0
    0.5777   -1.8471    5.3009 C   0  0  0  0  0  0  0  0  0  0  0  0
    3.3166   -1.6964    5.1420 C   0  0  0  0  0  0  0  0  0  0  0  0
    3.0474   -1.5682    3.0085 H   0  0  0  0  0  0  0  0  0  0  0  0
    1.3170   -1.8847    6.4739 C   0  0  0  0  0  0  0  0  0  0  0  0
    2.6915   -1.8029    6.3849 C   0  0  0  0  0  0  0  0  0  0  0  0
    4.3953   -1.6501    5.0991 H   0  0  0  0  0  0  0  0  0  0  0  0
    0.8222   -1.9840    7.4279 H   0  0  0  0  0  0  0  0  0  0  0  0
    3.2871   -1.8303    7.2852 H   0  0  0  0  0  0  0  0  0  0  0  0
  1  2  4  0  0  0  0
  2  3  4  0  0  0  0
  3  4  4  0  0  0  0
  4  5  4  0  0  0  0
  1  6  4  0  0  0  0
  5  6  4  0  0  0  0
  6  7  1  0  0  0  0
  5  8  1  0  0  0  0
  3  9  1  0  0  0  0
  2 10  1  0  0  0  0
 10 11  4  0  0  0  0
 11 12  4  0  0  0  0
 12 13  4  0  0  0  0
 13 14  4  0  0  0  0
 10 15  4  0  0  0  0
 14 15  4  0  0  0  0
 15 16  1  0  0  0  0
 13 17  1  0  0  0  0
 12 18  1  0  0  0  0
  1 19  1  0  0  0  0
 11 19  1  0  0  0  0
 19 20  1  0  0  0  0
 19 21  1  0  0  0  0
 21 22  1  0  0  0  0
 22 23  1  0  0  0  0
 23 24  1  0  0  0  0
 24 25  1  0  0  0  0
 24 26  1  0  0  0  0
 24 27  1  0  0  0  0
 23 28  1  0  0  0  0
 28 29  1  0  0  0  0
 28 30  1  0  0  0  0
 28 31  1  0  0  0  0
 23 32  1  0  0  0  0
 21 33  1  0  0  0  0
 32 33  1  0  0  0  0
 32 34  1  0  0  0  0
 34 35  1  0  0  0  0
 34 36  1  0  0  0  0
 34 37  1  0  0  0  0
 32 38  1  0  0  0  0
 38 39  1  0  0  0  0
 38 40  1  0  0  0  0
 38 41  1  0  0  0  0
 19 42  1  0  0  0  0
 42 43  1  0  0  0  0
 43 44  1  0  0  0  0
 44 45  1  0  0  0  0
 45 46  1  0  0  0  0
 45 47  1  0  0  0  0
 45 48  1  0  0  0  0
 44 49  1  0  0  0  0
 49 50  1  0  0  0  0
 49 51  1  0  0  0  0
 49 52  1  0  0  0  0
 44 53  1  0  0  0  0
 42 54  1  0  0  0  0
 53 54  1  0  0  0  0
 53 55  1  0  0  0  0
 55 56  1  0  0  0  0
 55 57  1  0  0  0  0
 55 58  1  0  0  0  0
 53 59  1  0  0  0  0
 59 60  1  0  0  0  0
 59 61  1  0  0  0  0
 59 62  1  0  0  0  0
 19 63  1  0  0  0  0
 63 64  1  0  0  0  0
 64 65  1  0  0  0  0
 65 66  1  0  0  0  0
 66 67  1  0  0  0  0
 66 68  1  0  0  0  0
 66 69  1  0  0  0  0
 65 70  1  0  0  0  0
 70 71  1  0  0  0  0
 70 72  1  0  0  0  0
 70 73  1  0  0  0  0
 65 74  1  0  0  0  0
 63 75  1  0  0  0  0
 74 75  1  0  0  0  0
 74 76  1  0  0  0  0
 76 77  1  0  0  0  0
 76 78  1  0  0  0  0
 76 79  1  0  0  0  0
 74 80  1  0  0  0  0
 80 81  1  0  0  0  0
 80 82  1  0  0  0  0
 80 83  1  0  0  0  0
  4 84  1  0  0  0  0
 14 85  1  0  0  0  0
 19 86  1  0  0  0  0
 20 86  1  0  0  0  0
 86 87  2  0  0  0  0
 86 88  1  0  0  0  0
 87 89  1  0  0  0  0
 87 90  1  0  0  0  0
 88 91  4  0  0  0  0
 88 92  4  0  0  0  0
 89 92  1  0  0  0  0
 91 93  4  0  0  0  0
 91 94  1  0  0  0  0
 92 95  4  0  0  0  0
 93 96  4  0  0  0  0
 95 96  4  0  0  0  0
 93 97  1  0  0  0  0
 95 98  1  0  0  0  0
 96 99  1  0  0  0  0
M  END
