
  xtb     01142213453D
 xtb: 6.4.1 (1a32961)
101108  0     0  0            999 V2000
   -0.9181   -2.0082   -0.3792 N   0  0  0  0  0  0  0  0  0  0  0  0
   -2.1691   -1.5322   -0.5362 C   0  0  0  0  0  0  0  0  0  0  0  0
   -3.0469   -2.1088   -1.4637 C   0  0  0  0  0  0  0  0  0  0  0  0
   -2.6294   -3.1694   -2.2366 C   0  0  0  0  0  0  0  0  0  0  0  0
   -1.3306   -3.6455   -2.0685 C   0  0  0  0  0  0  0  0  0  0  0  0
   -0.5257   -3.0330   -1.1317 C   0  0  0  0  0  0  0  0  0  0  0  0
    0.4865   -3.3726   -0.9622 H   0  0  0  0  0  0  0  0  0  0  0  0
   -0.9608   -4.4733   -2.6515 H   0  0  0  0  0  0  0  0  0  0  0  0
   -4.0486   -1.7291   -1.5805 H   0  0  0  0  0  0  0  0  0  0  0  0
   -2.5338   -0.3978    0.3009 C   0  0  0  0  0  0  0  0  0  0  0  0
   -1.5826    0.0559    1.1471 N   0  0  0  0  0  0  0  0  0  0  0  0
   -1.8716    1.0873    1.9391 C   0  0  0  0  0  0  0  0  0  0  0  0
   -3.0929    1.7283    1.9396 C   0  0  0  0  0  0  0  0  0  0  0  0
   -4.0791    1.2831    1.0618 C   0  0  0  0  0  0  0  0  0  0  0  0
   -3.7919    0.2154    0.2398 C   0  0  0  0  0  0  0  0  0  0  0  0
   -4.5412   -0.1412   -0.4473 H   0  0  0  0  0  0  0  0  0  0  0  0
   -3.2747    2.5536    2.6087 H   0  0  0  0  0  0  0  0  0  0  0  0
   -1.0719    1.4023    2.5923 H   0  0  0  0  0  0  0  0  0  0  0  0
    0.4215   -0.8165    0.9133 Ir  0  0  0  0  0  0  0  0  0  0  0  0
    0.8726   -2.2303    1.5405 H   0  0  0  0  0  0  0  0  0  0  0  0
    0.4006    0.6204   -0.5941 B   0  0  0  0  0  0  0  0  0  0  0  0
   -0.1701    0.3178   -1.8172 O   0  0  0  0  0  0  0  0  0  0  0  0
   -0.3004    1.5062   -2.6046 C   0  0  0  0  0  0  0  0  0  0  0  0
    0.0340    1.1984   -4.0618 C   0  0  0  0  0  0  0  0  0  0  0  0
    0.9931    0.6968   -4.1371 H   0  0  0  0  0  0  0  0  0  0  0  0
    0.0536    2.1166   -4.6433 H   0  0  0  0  0  0  0  0  0  0  0  0
   -0.7277    0.5389   -4.4711 H   0  0  0  0  0  0  0  0  0  0  0  0
   -1.7670    1.9510   -2.5054 C   0  0  0  0  0  0  0  0  0  0  0  0
   -1.9547    2.8246   -3.1225 H   0  0  0  0  0  0  0  0  0  0  0  0
   -2.4011    1.1337   -2.8435 H   0  0  0  0  0  0  0  0  0  0  0  0
   -2.0229    2.1702   -1.4704 H   0  0  0  0  0  0  0  0  0  0  0  0
    0.6807    2.4937   -1.8928 C   0  0  0  0  0  0  0  0  0  0  0  0
    0.7591    1.9503   -0.5678 O   0  0  0  0  0  0  0  0  0  0  0  0
    2.0961    2.4337   -2.4801 C   0  0  0  0  0  0  0  0  0  0  0  0
    2.4529    1.4069   -2.4424 H   0  0  0  0  0  0  0  0  0  0  0  0
    2.1194    2.8110   -3.4984 H   0  0  0  0  0  0  0  0  0  0  0  0
    2.7575    3.0374   -1.8632 H   0  0  0  0  0  0  0  0  0  0  0  0
    0.2100    3.9456   -1.8372 C   0  0  0  0  0  0  0  0  0  0  0  0
   -0.7091    4.0418   -1.2674 H   0  0  0  0  0  0  0  0  0  0  0  0
    0.9737    4.5490   -1.3525 H   0  0  0  0  0  0  0  0  0  0  0  0
    0.0531    4.3230   -2.8445 H   0  0  0  0  0  0  0  0  0  0  0  0
    1.5892    0.6277    1.8813 B   0  0  0  0  0  0  0  0  0  0  0  0
    2.9185    0.9028    1.7117 O   0  0  0  0  0  0  0  0  0  0  0  0
    3.2831    2.1132    2.3895 C   0  0  0  0  0  0  0  0  0  0  0  0
    4.6002    1.8943    3.1351 C   0  0  0  0  0  0  0  0  0  0  0  0
    4.5541    0.9890    3.7326 H   0  0  0  0  0  0  0  0  0  0  0  0
    5.4021    1.7756    2.4109 H   0  0  0  0  0  0  0  0  0  0  0  0
    4.8264    2.7474    3.7685 H   0  0  0  0  0  0  0  0  0  0  0  0
    3.4801    3.1771    1.3029 C   0  0  0  0  0  0  0  0  0  0  0  0
    3.7309    4.1430    1.7311 H   0  0  0  0  0  0  0  0  0  0  0  0
    4.2899    2.8571    0.6513 H   0  0  0  0  0  0  0  0  0  0  0  0
    2.5767    3.2466    0.7030 H   0  0  0  0  0  0  0  0  0  0  0  0
    2.0431    2.3932    3.3127 C   0  0  0  0  0  0  0  0  0  0  0  0
    1.0434    1.5056    2.7950 O   0  0  0  0  0  0  0  0  0  0  0  0
    1.5037    3.8236    3.2495 C   0  0  0  0  0  0  0  0  0  0  0  0
    1.1691    4.0633    2.2456 H   0  0  0  0  0  0  0  0  0  0  0  0
    0.6533    3.9089    3.9218 H   0  0  0  0  0  0  0  0  0  0  0  0
    2.2675    4.5304    3.5611 H   0  0  0  0  0  0  0  0  0  0  0  0
    2.2720    2.0178    4.7820 C   0  0  0  0  0  0  0  0  0  0  0  0
    2.6368    0.9985    4.8581 H   0  0  0  0  0  0  0  0  0  0  0  0
    2.9801    2.6948    5.2494 H   0  0  0  0  0  0  0  0  0  0  0  0
    1.3218    2.0818    5.3073 H   0  0  0  0  0  0  0  0  0  0  0  0
    2.2782   -1.3309    0.1741 B   0  0  0  0  0  0  0  0  0  0  0  0
    3.1098   -2.2876    0.7170 O   0  0  0  0  0  0  0  0  0  0  0  0
    4.3992   -2.2316    0.0933 C   0  0  0  0  0  0  0  0  0  0  0  0
    5.3092   -1.4489    1.0442 C   0  0  0  0  0  0  0  0  0  0  0  0
    4.8805   -0.4659    1.2141 H   0  0  0  0  0  0  0  0  0  0  0  0
    5.3286   -1.9619    2.0024 H   0  0  0  0  0  0  0  0  0  0  0  0
    6.3201   -1.3695    0.6563 H   0  0  0  0  0  0  0  0  0  0  0  0
    4.9442   -3.6485   -0.0826 C   0  0  0  0  0  0  0  0  0  0  0  0
    5.1099   -4.0808    0.9005 H   0  0  0  0  0  0  0  0  0  0  0  0
    5.8880   -3.6210   -0.6201 H   0  0  0  0  0  0  0  0  0  0  0  0
    4.2414   -4.2804   -0.6155 H   0  0  0  0  0  0  0  0  0  0  0  0
    4.1022   -1.4614   -1.2404 C   0  0  0  0  0  0  0  0  0  0  0  0
    2.8539   -0.8083   -0.9616 O   0  0  0  0  0  0  0  0  0  0  0  0
    5.1449   -0.4109   -1.6179 C   0  0  0  0  0  0  0  0  0  0  0  0
    6.1246   -0.8703   -1.7157 H   0  0  0  0  0  0  0  0  0  0  0  0
    4.8705    0.0399   -2.5685 H   0  0  0  0  0  0  0  0  0  0  0  0
    5.1787    0.3714   -0.8677 H   0  0  0  0  0  0  0  0  0  0  0  0
    3.8692   -2.3929   -2.4379 C   0  0  0  0  0  0  0  0  0  0  0  0
    3.1110   -3.1328   -2.1964 H   0  0  0  0  0  0  0  0  0  0  0  0
    3.5050   -1.8002   -3.2738 H   0  0  0  0  0  0  0  0  0  0  0  0
    4.7894   -2.8900   -2.7298 H   0  0  0  0  0  0  0  0  0  0  0  0
   -3.2948   -3.6203   -2.9571 H   0  0  0  0  0  0  0  0  0  0  0  0
   -5.0464    1.7611    1.0253 H   0  0  0  0  0  0  0  0  0  0  0  0
    0.2359   -1.6814    2.9603 C   0  0  0  0  0  0  0  0  0  0  0  0
   -1.0277   -1.9917    3.4963 C   0  0  0  0  0  0  0  0  0  0  0  0
    1.1111   -1.6795    4.0471 C   0  0  0  0  0  0  0  0  0  0  0  0
   -0.9079   -2.1162    4.8656 C   0  0  0  0  0  0  0  0  0  0  0  0
   -1.9426   -2.1080    2.9471 H   0  0  0  0  0  0  0  0  0  0  0  0
    2.4874   -1.4992    4.0860 C   0  0  0  0  0  0  0  0  0  0  0  0
    0.3910   -1.9271    5.2007 N   0  0  0  0  0  0  0  0  0  0  0  0
   -1.9491   -2.4138    5.8849 C   0  0  0  0  0  0  0  0  0  0  0  0
    3.6276   -1.3785    4.2174 N   0  0  0  0  0  0  0  0  0  0  0  0
    0.9307   -1.9973    6.5303 C   0  0  0  0  0  0  0  0  0  0  0  0
   -2.9128   -2.5306    5.3980 H   0  0  0  0  0  0  0  0  0  0  0  0
   -2.0207   -1.6066    6.6138 H   0  0  0  0  0  0  0  0  0  0  0  0
   -1.7139   -3.3330    6.4216 H   0  0  0  0  0  0  0  0  0  0  0  0
    1.9948   -1.7717    6.4939 H   0  0  0  0  0  0  0  0  0  0  0  0
    0.7951   -2.9985    6.9458 H   0  0  0  0  0  0  0  0  0  0  0  0
    0.4349   -1.2761    7.1827 H   0  0  0  0  0  0  0  0  0  0  0  0
  1  2  4  0  0  0  0
  2  3  4  0  0  0  0
  3  4  4  0  0  0  0
  4  5  4  0  0  0  0
  1  6  4  0  0  0  0
  5  6  4  0  0  0  0
  6  7  1  0  0  0  0
  5  8  1  0  0  0  0
  3  9  1  0  0  0  0
  2 10  1  0  0  0  0
 10 11  4  0  0  0  0
 11 12  4  0  0  0  0
 12 13  4  0  0  0  0
 13 14  4  0  0  0  0
 10 15  4  0  0  0  0
 14 15  4  0  0  0  0
 15 16  1  0  0  0  0
 13 17  1  0  0  0  0
 12 18  1  0  0  0  0
  1 19  1  0  0  0  0
 11 19  1  0  0  0  0
 19 20  1  0  0  0  0
 19 21  1  0  0  0  0
 21 22  1  0  0  0  0
 22 23  1  0  0  0  0
 23 24  1  0  0  0  0
 24 25  1  0  0  0  0
 24 26  1  0  0  0  0
 24 27  1  0  0  0  0
 23 28  1  0  0  0  0
 28 29  1  0  0  0  0
 28 30  1  0  0  0  0
 28 31  1  0  0  0  0
 23 32  1  0  0  0  0
 21 33  1  0  0  0  0
 32 33  1  0  0  0  0
 32 34  1  0  0  0  0
 34 35  1  0  0  0  0
 34 36  1  0  0  0  0
 34 37  1  0  0  0  0
 32 38  1  0  0  0  0
 38 39  1  0  0  0  0
 38 40  1  0  0  0  0
 38 41  1  0  0  0  0
 19 42  1  0  0  0  0
 42 43  1  0  0  0  0
 43 44  1  0  0  0  0
 44 45  1  0  0  0  0
 45 46  1  0  0  0  0
 45 47  1  0  0  0  0
 45 48  1  0  0  0  0
 44 49  1  0  0  0  0
 49 50  1  0  0  0  0
 49 51  1  0  0  0  0
 49 52  1  0  0  0  0
 44 53  1  0  0  0  0
 42 54  1  0  0  0  0
 53 54  1  0  0  0  0
 53 55  1  0  0  0  0
 55 56  1  0  0  0  0
 55 57  1  0  0  0  0
 55 58  1  0  0  0  0
 53 59  1  0  0  0  0
 59 60  1  0  0  0  0
 59 61  1  0  0  0  0
 59 62  1  0  0  0  0
 19 63  1  0  0  0  0
 63 64  1  0  0  0  0
 64 65  1  0  0  0  0
 65 66  1  0  0  0  0
 66 67  1  0  0  0  0
 66 68  1  0  0  0  0
 66 69  1  0  0  0  0
 65 70  1  0  0  0  0
 70 71  1  0  0  0  0
 70 72  1  0  0  0  0
 70 73  1  0  0  0  0
 65 74  1  0  0  0  0
 63 75  1  0  0  0  0
 74 75  1  0  0  0  0
 74 76  1  0  0  0  0
 76 77  1  0  0  0  0
 76 78  1  0  0  0  0
 76 79  1  0  0  0  0
 74 80  1  0  0  0  0
 80 81  1  0  0  0  0
 80 82  1  0  0  0  0
 80 83  1  0  0  0  0
  4 84  1  0  0  0  0
 14 85  1  0  0  0  0
 19 86  1  0  0  0  0
 20 86  1  0  0  0  0
 86 87  4  0  0  0  0
 86 88  4  0  0  0  0
 87 89  4  0  0  0  0
 87 90  1  0  0  0  0
 88 91  1  0  0  0  0
 88 92  1  0  0  0  0
 89 92  4  0  0  0  0
 89 93  1  0  0  0  0
 91 94  3  0  0  0  0
 92 95  1  0  0  0  0
 93 96  1  0  0  0  0
 93 97  1  0  0  0  0
 93 98  1  0  0  0  0
 95 99  1  0  0  0  0
 95100  1  0  0  0  0
 95101  1  0  0  0  0
M  END
