
  xtb     10082107253D
 xtb: 6.4.0 (f63f532)
111119  0     0  0            999 V2000
   -0.9091   -2.0312   -0.3786 N   0  0  0  0  0  0  0  0  0  0  0  0
   -2.1697   -1.5792   -0.5262 C   0  0  0  0  0  0  0  0  0  0  0  0
   -3.0495   -2.1877   -1.4318 C   0  0  0  0  0  0  0  0  0  0  0  0
   -2.6223   -3.2505   -2.1962 C   0  0  0  0  0  0  0  0  0  0  0  0
   -1.3118   -3.6986   -2.0410 C   0  0  0  0  0  0  0  0  0  0  0  0
   -0.5075   -3.0584   -1.1223 C   0  0  0  0  0  0  0  0  0  0  0  0
    0.5128   -3.3769   -0.9606 H   0  0  0  0  0  0  0  0  0  0  0  0
   -0.9340   -4.5266   -2.6186 H   0  0  0  0  0  0  0  0  0  0  0  0
   -4.0613   -1.8319   -1.5374 H   0  0  0  0  0  0  0  0  0  0  0  0
   -2.5447   -0.4373    0.2961 C   0  0  0  0  0  0  0  0  0  0  0  0
   -1.6060    0.0249    1.1511 N   0  0  0  0  0  0  0  0  0  0  0  0
   -1.9096    1.0606    1.9309 C   0  0  0  0  0  0  0  0  0  0  0  0
   -3.1295    1.7040    1.9046 C   0  0  0  0  0  0  0  0  0  0  0  0
   -4.1005    1.2533    1.0127 C   0  0  0  0  0  0  0  0  0  0  0  0
   -3.8007    0.1768    0.2072 C   0  0  0  0  0  0  0  0  0  0  0  0
   -4.5381   -0.1840   -0.4908 H   0  0  0  0  0  0  0  0  0  0  0  0
   -3.3217    2.5349    2.5639 H   0  0  0  0  0  0  0  0  0  0  0  0
   -1.1215    1.3825    2.5939 H   0  0  0  0  0  0  0  0  0  0  0  0
    0.4215   -0.8165    0.9133 Ir  0  0  0  0  0  0  0  0  0  0  0  0
    0.8726   -2.2303    1.5405 H   0  0  0  0  0  0  0  0  0  0  0  0
    0.3845    0.6354   -0.5888 B   0  0  0  0  0  0  0  0  0  0  0  0
   -0.3111    0.3782   -1.7585 O   0  0  0  0  0  0  0  0  0  0  0  0
   -0.4096    1.5707   -2.5433 C   0  0  0  0  0  0  0  0  0  0  0  0
   -0.2312    1.2320   -4.0212 C   0  0  0  0  0  0  0  0  0  0  0  0
    0.6688    0.6457   -4.1747 H   0  0  0  0  0  0  0  0  0  0  0  0
   -0.1791    2.1440   -4.6102 H   0  0  0  0  0  0  0  0  0  0  0  0
   -1.0816    0.6441   -4.3586 H   0  0  0  0  0  0  0  0  0  0  0  0
   -1.8186    2.1400   -2.3213 C   0  0  0  0  0  0  0  0  0  0  0  0
   -1.9848    3.0256   -2.9276 H   0  0  0  0  0  0  0  0  0  0  0  0
   -2.5481    1.3802   -2.5953 H   0  0  0  0  0  0  0  0  0  0  0  0
   -1.9633    2.3814   -1.2700 H   0  0  0  0  0  0  0  0  0  0  0  0
    0.7100    2.4738   -1.9307 C   0  0  0  0  0  0  0  0  0  0  0  0
    0.8644    1.9255   -0.6151 O   0  0  0  0  0  0  0  0  0  0  0  0
    2.0583    2.2997   -2.6408 C   0  0  0  0  0  0  0  0  0  0  0  0
    2.3304    1.2469   -2.6341 H   0  0  0  0  0  0  0  0  0  0  0  0
    2.0254    2.6810   -3.6574 H   0  0  0  0  0  0  0  0  0  0  0  0
    2.8179    2.8420   -2.0825 H   0  0  0  0  0  0  0  0  0  0  0  0
    0.3666    3.9595   -1.8426 C   0  0  0  0  0  0  0  0  0  0  0  0
   -0.4834    4.1295   -1.1891 H   0  0  0  0  0  0  0  0  0  0  0  0
    1.2194    4.4982   -1.4365 H   0  0  0  0  0  0  0  0  0  0  0  0
    0.1460    4.3494   -2.8331 H   0  0  0  0  0  0  0  0  0  0  0  0
    1.5588    0.6552    1.8612 B   0  0  0  0  0  0  0  0  0  0  0  0
    2.9266    0.7992    1.8686 O   0  0  0  0  0  0  0  0  0  0  0  0
    3.2875    2.0734    2.4199 C   0  0  0  0  0  0  0  0  0  0  0  0
    4.5336    1.9274    3.2923 C   0  0  0  0  0  0  0  0  0  0  0  0
    4.4028    1.1457    4.0331 H   0  0  0  0  0  0  0  0  0  0  0  0
    5.3794    1.6596    2.6642 H   0  0  0  0  0  0  0  0  0  0  0  0
    4.7522    2.8683    3.7901 H   0  0  0  0  0  0  0  0  0  0  0  0
    3.5987    2.9905    1.2308 C   0  0  0  0  0  0  0  0  0  0  0  0
    3.8631    3.9922    1.5564 H   0  0  0  0  0  0  0  0  0  0  0  0
    4.4326    2.5674    0.6750 H   0  0  0  0  0  0  0  0  0  0  0  0
    2.7355    3.0159    0.5707 H   0  0  0  0  0  0  0  0  0  0  0  0
    1.9897    2.4957    3.1899 C   0  0  0  0  0  0  0  0  0  0  0  0
    0.9820    1.6753    2.5854 O   0  0  0  0  0  0  0  0  0  0  0  0
    1.6013    3.9654    3.0370 C   0  0  0  0  0  0  0  0  0  0  0  0
    1.3850    4.1977    1.9996 H   0  0  0  0  0  0  0  0  0  0  0  0
    0.7066    4.1591    3.6236 H   0  0  0  0  0  0  0  0  0  0  0  0
    2.4019    4.6053    3.3980 H   0  0  0  0  0  0  0  0  0  0  0  0
    2.0298    2.1367    4.6809 C   0  0  0  0  0  0  0  0  0  0  0  0
    2.2538    1.0808    4.8024 H   0  0  0  0  0  0  0  0  0  0  0  0
    2.7639    2.7377    5.2088 H   0  0  0  0  0  0  0  0  0  0  0  0
    1.0475    2.3199    5.1100 H   0  0  0  0  0  0  0  0  0  0  0  0
    2.2782   -1.3309    0.1741 B   0  0  0  0  0  0  0  0  0  0  0  0
    3.1423   -2.2493    0.7316 O   0  0  0  0  0  0  0  0  0  0  0  0
    4.4110   -2.2102    0.0670 C   0  0  0  0  0  0  0  0  0  0  0  0
    5.3564   -1.4180    0.9766 C   0  0  0  0  0  0  0  0  0  0  0  0
    4.9112   -0.4500    1.1873 H   0  0  0  0  0  0  0  0  0  0  0  0
    5.4555   -1.9526    1.9180 H   0  0  0  0  0  0  0  0  0  0  0  0
    6.3388   -1.3027    0.5292 H   0  0  0  0  0  0  0  0  0  0  0  0
    4.9435   -3.6338   -0.0982 C   0  0  0  0  0  0  0  0  0  0  0  0
    5.1168   -4.0579    0.8872 H   0  0  0  0  0  0  0  0  0  0  0  0
    5.8810   -3.6209   -0.6470 H   0  0  0  0  0  0  0  0  0  0  0  0
    4.2295   -4.2666   -0.6146 H   0  0  0  0  0  0  0  0  0  0  0  0
    4.0788   -1.4647   -1.2744 C   0  0  0  0  0  0  0  0  0  0  0  0
    2.8208   -0.8349   -0.9897 O   0  0  0  0  0  0  0  0  0  0  0  0
    5.0917   -0.3950   -1.6797 C   0  0  0  0  0  0  0  0  0  0  0  0
    6.0779   -0.8343   -1.8027 H   0  0  0  0  0  0  0  0  0  0  0  0
    4.7840    0.0473   -2.6239 H   0  0  0  0  0  0  0  0  0  0  0  0
    5.1282    0.3915   -0.9339 H   0  0  0  0  0  0  0  0  0  0  0  0
    3.8539   -2.4157   -2.4581 C   0  0  0  0  0  0  0  0  0  0  0  0
    3.1035   -3.1599   -2.2060 H   0  0  0  0  0  0  0  0  0  0  0  0
    3.4830   -1.8389   -3.3020 H   0  0  0  0  0  0  0  0  0  0  0  0
    4.7785   -2.9073   -2.7450 H   0  0  0  0  0  0  0  0  0  0  0  0
   -3.2892   -3.7248   -2.9003 H   0  0  0  0  0  0  0  0  0  0  0  0
   -5.0653    1.7342    0.9528 H   0  0  0  0  0  0  0  0  0  0  0  0
    0.2359   -1.6814    2.9603 C   0  0  0  0  0  0  0  0  0  0  0  0
   -1.0379   -2.0868    3.3442 C   0  0  0  0  0  0  0  0  0  0  0  0
    1.1994   -1.5107    3.9513 C   0  0  0  0  0  0  0  0  0  0  0  0
   -1.3832   -2.2297    4.6836 C   0  0  0  0  0  0  0  0  0  0  0  0
   -1.7921   -2.3008    2.5980 H   0  0  0  0  0  0  0  0  0  0  0  0
    0.8668   -1.6485    5.2881 C   0  0  0  0  0  0  0  0  0  0  0  0
    2.2123   -1.2736    3.6636 H   0  0  0  0  0  0  0  0  0  0  0  0
   -2.7588   -2.6958    5.0713 C   0  0  0  0  0  0  0  0  0  0  0  0
   -0.4217   -1.9966    5.6573 C   0  0  0  0  0  0  0  0  0  0  0  0
    1.6182   -1.4964    6.0507 H   0  0  0  0  0  0  0  0  0  0  0  0
   -2.7904   -4.2324    5.1865 C   0  0  0  0  0  0  0  0  0  0  0  0
   -3.0427   -2.2696    6.0353 H   0  0  0  0  0  0  0  0  0  0  0  0
   -3.4908   -2.3784    4.3254 H   0  0  0  0  0  0  0  0  0  0  0  0
   -0.6784   -2.1060    6.7014 H   0  0  0  0  0  0  0  0  0  0  0  0
   -4.1533   -4.6972    5.6021 C   0  0  0  0  0  0  0  0  0  0  0  0
   -2.5193   -4.6679    4.2232 H   0  0  0  0  0  0  0  0  0  0  0  0
   -2.0637   -4.5457    5.9359 H   0  0  0  0  0  0  0  0  0  0  0  0
   -4.3493   -4.8864    6.9021 N   0  0  0  0  0  0  0  0  0  0  0  0
   -5.1726   -4.8838    4.6696 C   0  0  0  0  0  0  0  0  0  0  0  0
   -5.5452   -5.2664    7.3190 C   0  0  0  0  0  0  0  0  0  0  0  0
   -6.4222   -5.2812    5.1111 C   0  0  0  0  0  0  0  0  0  0  0  0
   -4.9803   -4.7230    3.6195 H   0  0  0  0  0  0  0  0  0  0  0  0
   -6.6191   -5.4805    6.4698 C   0  0  0  0  0  0  0  0  0  0  0  0
   -5.6390   -5.4060    8.3888 H   0  0  0  0  0  0  0  0  0  0  0  0
   -7.2297   -5.4359    4.4097 H   0  0  0  0  0  0  0  0  0  0  0  0
   -7.5757   -5.7934    6.8577 H   0  0  0  0  0  0  0  0  0  0  0  0
  1  2  4  0  0  0  0
  2  3  4  0  0  0  0
  3  4  4  0  0  0  0
  4  5  4  0  0  0  0
  1  6  4  0  0  0  0
  5  6  4  0  0  0  0
  6  7  1  0  0  0  0
  5  8  1  0  0  0  0
  3  9  1  0  0  0  0
  2 10  1  0  0  0  0
 10 11  4  0  0  0  0
 11 12  4  0  0  0  0
 12 13  4  0  0  0  0
 13 14  4  0  0  0  0
 10 15  4  0  0  0  0
 14 15  4  0  0  0  0
 15 16  1  0  0  0  0
 13 17  1  0  0  0  0
 12 18  1  0  0  0  0
  1 19  1  0  0  0  0
 11 19  1  0  0  0  0
 19 20  1  0  0  0  0
 19 21  1  0  0  0  0
 21 22  1  0  0  0  0
 22 23  1  0  0  0  0
 23 24  1  0  0  0  0
 24 25  1  0  0  0  0
 24 26  1  0  0  0  0
 24 27  1  0  0  0  0
 23 28  1  0  0  0  0
 28 29  1  0  0  0  0
 28 30  1  0  0  0  0
 28 31  1  0  0  0  0
 23 32  1  0  0  0  0
 21 33  1  0  0  0  0
 32 33  1  0  0  0  0
 32 34  1  0  0  0  0
 34 35  1  0  0  0  0
 34 36  1  0  0  0  0
 34 37  1  0  0  0  0
 32 38  1  0  0  0  0
 38 39  1  0  0  0  0
 38 40  1  0  0  0  0
 38 41  1  0  0  0  0
 19 42  1  0  0  0  0
 42 43  1  0  0  0  0
 43 44  1  0  0  0  0
 44 45  1  0  0  0  0
 45 46  1  0  0  0  0
 45 47  1  0  0  0  0
 45 48  1  0  0  0  0
 44 49  1  0  0  0  0
 49 50  1  0  0  0  0
 49 51  1  0  0  0  0
 49 52  1  0  0  0  0
 44 53  1  0  0  0  0
 42 54  1  0  0  0  0
 53 54  1  0  0  0  0
 53 55  1  0  0  0  0
 55 56  1  0  0  0  0
 55 57  1  0  0  0  0
 55 58  1  0  0  0  0
 53 59  1  0  0  0  0
 59 60  1  0  0  0  0
 59 61  1  0  0  0  0
 59 62  1  0  0  0  0
 19 63  1  0  0  0  0
 63 64  1  0  0  0  0
 64 65  1  0  0  0  0
 65 66  1  0  0  0  0
 66 67  1  0  0  0  0
 66 68  1  0  0  0  0
 66 69  1  0  0  0  0
 65 70  1  0  0  0  0
 70 71  1  0  0  0  0
 70 72  1  0  0  0  0
 70 73  1  0  0  0  0
 65 74  1  0  0  0  0
 63 75  1  0  0  0  0
 74 75  1  0  0  0  0
 74 76  1  0  0  0  0
 76 77  1  0  0  0  0
 76 78  1  0  0  0  0
 76 79  1  0  0  0  0
 74 80  1  0  0  0  0
 80 81  1  0  0  0  0
 80 82  1  0  0  0  0
 80 83  1  0  0  0  0
  4 84  1  0  0  0  0
 14 85  1  0  0  0  0
 19 86  1  0  0  0  0
 20 86  1  0  0  0  0
 86 87  4  0  0  0  0
 86 88  4  0  0  0  0
 87 89  4  0  0  0  0
 87 90  1  0  0  0  0
 88 91  4  0  0  0  0
 88 92  1  0  0  0  0
 89 93  1  0  0  0  0
 89 94  4  0  0  0  0
 91 94  4  0  0  0  0
 91 95  1  0  0  0  0
 93 96  1  0  0  0  0
 93 97  1  0  0  0  0
 93 98  1  0  0  0  0
 94 99  1  0  0  0  0
 96100  1  0  0  0  0
 96101  1  0  0  0  0
 96102  1  0  0  0  0
100103  4  0  0  0  0
100104  4  0  0  0  0
103105  4  0  0  0  0
104106  4  0  0  0  0
104107  1  0  0  0  0
105108  4  0  0  0  0
106108  4  0  0  0  0
105109  1  0  0  0  0
106110  1  0  0  0  0
108111  1  0  0  0  0
M  END
