
  xtb     01142213343D
 xtb: 6.4.1 (1a32961)
 99107  0     0  0            999 V2000
   -0.9268   -2.0282   -0.3734 N   0  0  0  0  0  0  0  0  0  0  0  0
   -2.1724   -1.5446   -0.5348 C   0  0  0  0  0  0  0  0  0  0  0  0
   -3.0223   -2.0600   -1.5212 C   0  0  0  0  0  0  0  0  0  0  0  0
   -2.5851   -3.0787   -2.3394 C   0  0  0  0  0  0  0  0  0  0  0  0
   -1.2968   -3.5741   -2.1557 C   0  0  0  0  0  0  0  0  0  0  0  0
   -0.5165   -3.0147   -1.1653 C   0  0  0  0  0  0  0  0  0  0  0  0
    0.4891   -3.3671   -0.9842 H   0  0  0  0  0  0  0  0  0  0  0  0
   -0.9144   -4.3723   -2.7707 H   0  0  0  0  0  0  0  0  0  0  0  0
   -4.0140   -1.6606   -1.6556 H   0  0  0  0  0  0  0  0  0  0  0  0
   -2.5641   -0.4580    0.3562 C   0  0  0  0  0  0  0  0  0  0  0  0
   -1.6085    0.0214    1.1789 N   0  0  0  0  0  0  0  0  0  0  0  0
   -1.9180    1.0137    2.0083 C   0  0  0  0  0  0  0  0  0  0  0  0
   -3.1724    1.5856    2.0778 C   0  0  0  0  0  0  0  0  0  0  0  0
   -4.1702    1.1021    1.2362 C   0  0  0  0  0  0  0  0  0  0  0  0
   -3.8584    0.0763    0.3701 C   0  0  0  0  0  0  0  0  0  0  0  0
   -4.6199   -0.3145   -0.2842 H   0  0  0  0  0  0  0  0  0  0  0  0
   -3.3699    2.3825    2.7764 H   0  0  0  0  0  0  0  0  0  0  0  0
   -1.1082    1.3596    2.6318 H   0  0  0  0  0  0  0  0  0  0  0  0
    0.4215   -0.8165    0.9133 Ir  0  0  0  0  0  0  0  0  0  0  0  0
    0.8726   -2.2303    1.5405 H   0  0  0  0  0  0  0  0  0  0  0  0
    0.3830    0.6015   -0.6169 B   0  0  0  0  0  0  0  0  0  0  0  0
   -0.3009    0.3292   -1.7899 O   0  0  0  0  0  0  0  0  0  0  0  0
   -0.4080    1.5174   -2.5810 C   0  0  0  0  0  0  0  0  0  0  0  0
   -0.2240    1.1723   -4.0565 C   0  0  0  0  0  0  0  0  0  0  0  0
    0.6836    0.5971   -4.2058 H   0  0  0  0  0  0  0  0  0  0  0  0
   -0.1838    2.0813   -4.6510 H   0  0  0  0  0  0  0  0  0  0  0  0
   -1.0666    0.5709   -4.3897 H   0  0  0  0  0  0  0  0  0  0  0  0
   -1.8223    2.0749   -2.3624 C   0  0  0  0  0  0  0  0  0  0  0  0
   -1.9945    2.9594   -2.9684 H   0  0  0  0  0  0  0  0  0  0  0  0
   -2.5446    1.3091   -2.6385 H   0  0  0  0  0  0  0  0  0  0  0  0
   -1.9703    2.3141   -1.3111 H   0  0  0  0  0  0  0  0  0  0  0  0
    0.7023    2.4324   -1.9695 C   0  0  0  0  0  0  0  0  0  0  0  0
    0.8509    1.8954   -0.6481 O   0  0  0  0  0  0  0  0  0  0  0  0
    2.0561    2.2590   -2.6687 C   0  0  0  0  0  0  0  0  0  0  0  0
    2.3324    1.2074   -2.6515 H   0  0  0  0  0  0  0  0  0  0  0  0
    2.0286    2.6327   -3.6882 H   0  0  0  0  0  0  0  0  0  0  0  0
    2.8091    2.8082   -2.1084 H   0  0  0  0  0  0  0  0  0  0  0  0
    0.3494    3.9165   -1.8962 C   0  0  0  0  0  0  0  0  0  0  0  0
   -0.5018    4.0872   -1.2444 H   0  0  0  0  0  0  0  0  0  0  0  0
    1.1986    4.4648   -1.4955 H   0  0  0  0  0  0  0  0  0  0  0  0
    0.1263    4.2952   -2.8905 H   0  0  0  0  0  0  0  0  0  0  0  0
    1.5661    0.6560    1.8498 B   0  0  0  0  0  0  0  0  0  0  0  0
    2.9323    0.8030    1.8576 O   0  0  0  0  0  0  0  0  0  0  0  0
    3.2868    2.0825    2.4027 C   0  0  0  0  0  0  0  0  0  0  0  0
    4.5421    1.9515    3.2637 C   0  0  0  0  0  0  0  0  0  0  0  0
    4.4270    1.1705    4.0078 H   0  0  0  0  0  0  0  0  0  0  0  0
    5.3848    1.6921    2.6281 H   0  0  0  0  0  0  0  0  0  0  0  0
    4.7550    2.8960    3.7571 H   0  0  0  0  0  0  0  0  0  0  0  0
    3.5758    2.9994    1.2083 C   0  0  0  0  0  0  0  0  0  0  0  0
    3.8362    4.0038    1.5287 H   0  0  0  0  0  0  0  0  0  0  0  0
    4.4058    2.5814    0.6432 H   0  0  0  0  0  0  0  0  0  0  0  0
    2.7045    3.0159    0.5588 H   0  0  0  0  0  0  0  0  0  0  0  0
    1.9916    2.4938    3.1822 C   0  0  0  0  0  0  0  0  0  0  0  0
    0.9853    1.6714    2.5763 O   0  0  0  0  0  0  0  0  0  0  0  0
    1.5953    3.9624    3.0411 C   0  0  0  0  0  0  0  0  0  0  0  0
    1.3646    4.1980    2.0077 H   0  0  0  0  0  0  0  0  0  0  0  0
    0.7078    4.1506    3.6403 H   0  0  0  0  0  0  0  0  0  0  0  0
    2.3982    4.6038    3.3945 H   0  0  0  0  0  0  0  0  0  0  0  0
    2.0430    2.1244    4.6703 C   0  0  0  0  0  0  0  0  0  0  0  0
    2.2753    1.0693    4.7830 H   0  0  0  0  0  0  0  0  0  0  0  0
    2.7763    2.7269    5.1976 H   0  0  0  0  0  0  0  0  0  0  0  0
    1.0627    2.2983    5.1078 H   0  0  0  0  0  0  0  0  0  0  0  0
    2.2782   -1.3309    0.1741 B   0  0  0  0  0  0  0  0  0  0  0  0
    3.1126   -2.2780    0.7296 O   0  0  0  0  0  0  0  0  0  0  0  0
    4.4027   -2.2385    0.1073 C   0  0  0  0  0  0  0  0  0  0  0  0
    5.3327   -1.5071    1.0814 C   0  0  0  0  0  0  0  0  0  0  0  0
    4.9001   -0.5399    1.3200 H   0  0  0  0  0  0  0  0  0  0  0  0
    5.3896   -2.0850    2.0003 H   0  0  0  0  0  0  0  0  0  0  0  0
    6.3316   -1.3933    0.6721 H   0  0  0  0  0  0  0  0  0  0  0  0
    4.9097   -3.6661   -0.0996 C   0  0  0  0  0  0  0  0  0  0  0  0
    5.0356   -4.1353    0.8725 H   0  0  0  0  0  0  0  0  0  0  0  0
    5.8676   -3.6531   -0.6117 H   0  0  0  0  0  0  0  0  0  0  0  0
    4.2019   -4.2591   -0.6689 H   0  0  0  0  0  0  0  0  0  0  0  0
    4.1303   -1.4312   -1.2125 C   0  0  0  0  0  0  0  0  0  0  0  0
    2.8629   -0.8075   -0.9547 O   0  0  0  0  0  0  0  0  0  0  0  0
    5.1607   -0.3463   -1.5224 C   0  0  0  0  0  0  0  0  0  0  0  0
    6.1502   -0.7817   -1.6297 H   0  0  0  0  0  0  0  0  0  0  0  0
    4.8892    0.1450   -2.4534 H   0  0  0  0  0  0  0  0  0  0  0  0
    5.1679    0.4002   -0.7360 H   0  0  0  0  0  0  0  0  0  0  0  0
    3.9552   -2.3234   -2.4488 C   0  0  0  0  0  0  0  0  0  0  0  0
    3.1863   -3.0694   -2.2691 H   0  0  0  0  0  0  0  0  0  0  0  0
    3.6319   -1.7030   -3.2811 H   0  0  0  0  0  0  0  0  0  0  0  0
    4.8882   -2.8113   -2.7138 H   0  0  0  0  0  0  0  0  0  0  0  0
   -3.2285   -3.4812   -3.1069 H   0  0  0  0  0  0  0  0  0  0  0  0
   -5.1664    1.5176    1.2603 H   0  0  0  0  0  0  0  0  0  0  0  0
    0.2359   -1.6814    2.9603 C   0  0  0  0  0  0  0  0  0  0  0  0
   -1.0584   -2.0820    3.3177 C   0  0  0  0  0  0  0  0  0  0  0  0
    1.1969   -1.5187    3.9548 C   0  0  0  0  0  0  0  0  0  0  0  0
   -1.3482   -2.2014    4.6557 C   0  0  0  0  0  0  0  0  0  0  0  0
   -1.8209   -2.2965    2.5862 H   0  0  0  0  0  0  0  0  0  0  0  0
    0.9025   -1.6508    5.3102 C   0  0  0  0  0  0  0  0  0  0  0  0
    2.2075   -1.2865    3.6588 H   0  0  0  0  0  0  0  0  0  0  0  0
   -0.3906   -1.9818    5.6398 C   0  0  0  0  0  0  0  0  0  0  0  0
   -2.5453   -2.5520    5.2527 O   0  0  0  0  0  0  0  0  0  0  0  0
    1.6496   -1.5116    6.0743 H   0  0  0  0  0  0  0  0  0  0  0  0
   -0.9553   -2.1819    6.8857 O   0  0  0  0  0  0  0  0  0  0  0  0
   -2.2977   -2.5467    6.6439 C   0  0  0  0  0  0  0  0  0  0  0  0
   -2.9692   -1.8231    7.1335 H   0  0  0  0  0  0  0  0  0  0  0  0
   -2.4839   -3.5534    7.0528 H   0  0  0  0  0  0  0  0  0  0  0  0
  1  2  4  0  0  0  0
  2  3  4  0  0  0  0
  3  4  4  0  0  0  0
  4  5  4  0  0  0  0
  1  6  4  0  0  0  0
  5  6  4  0  0  0  0
  6  7  1  0  0  0  0
  5  8  1  0  0  0  0
  3  9  1  0  0  0  0
  2 10  1  0  0  0  0
 10 11  4  0  0  0  0
 11 12  4  0  0  0  0
 12 13  4  0  0  0  0
 13 14  4  0  0  0  0
 10 15  4  0  0  0  0
 14 15  4  0  0  0  0
 15 16  1  0  0  0  0
 13 17  1  0  0  0  0
 12 18  1  0  0  0  0
  1 19  1  0  0  0  0
 11 19  1  0  0  0  0
 19 20  1  0  0  0  0
 19 21  1  0  0  0  0
 21 22  1  0  0  0  0
 22 23  1  0  0  0  0
 23 24  1  0  0  0  0
 24 25  1  0  0  0  0
 24 26  1  0  0  0  0
 24 27  1  0  0  0  0
 23 28  1  0  0  0  0
 28 29  1  0  0  0  0
 28 30  1  0  0  0  0
 28 31  1  0  0  0  0
 23 32  1  0  0  0  0
 21 33  1  0  0  0  0
 32 33  1  0  0  0  0
 32 34  1  0  0  0  0
 34 35  1  0  0  0  0
 34 36  1  0  0  0  0
 34 37  1  0  0  0  0
 32 38  1  0  0  0  0
 38 39  1  0  0  0  0
 38 40  1  0  0  0  0
 38 41  1  0  0  0  0
 19 42  1  0  0  0  0
 42 43  1  0  0  0  0
 43 44  1  0  0  0  0
 44 45  1  0  0  0  0
 45 46  1  0  0  0  0
 45 47  1  0  0  0  0
 45 48  1  0  0  0  0
 44 49  1  0  0  0  0
 49 50  1  0  0  0  0
 49 51  1  0  0  0  0
 49 52  1  0  0  0  0
 44 53  1  0  0  0  0
 42 54  1  0  0  0  0
 53 54  1  0  0  0  0
 53 55  1  0  0  0  0
 55 56  1  0  0  0  0
 55 57  1  0  0  0  0
 55 58  1  0  0  0  0
 53 59  1  0  0  0  0
 59 60  1  0  0  0  0
 59 61  1  0  0  0  0
 59 62  1  0  0  0  0
 19 63  1  0  0  0  0
 63 64  1  0  0  0  0
 64 65  1  0  0  0  0
 65 66  1  0  0  0  0
 66 67  1  0  0  0  0
 66 68  1  0  0  0  0
 66 69  1  0  0  0  0
 65 70  1  0  0  0  0
 70 71  1  0  0  0  0
 70 72  1  0  0  0  0
 70 73  1  0  0  0  0
 65 74  1  0  0  0  0
 63 75  1  0  0  0  0
 74 75  1  0  0  0  0
 74 76  1  0  0  0  0
 76 77  1  0  0  0  0
 76 78  1  0  0  0  0
 76 79  1  0  0  0  0
 74 80  1  0  0  0  0
 80 81  1  0  0  0  0
 80 82  1  0  0  0  0
 80 83  1  0  0  0  0
  4 84  1  0  0  0  0
 14 85  1  0  0  0  0
 19 86  1  0  0  0  0
 20 86  1  0  0  0  0
 86 87  4  0  0  0  0
 86 88  4  0  0  0  0
 87 89  4  0  0  0  0
 87 90  1  0  0  0  0
 88 91  4  0  0  0  0
 88 92  1  0  0  0  0
 89 93  4  0  0  0  0
 91 93  4  0  0  0  0
 89 94  1  0  0  0  0
 91 95  1  0  0  0  0
 93 96  1  0  0  0  0
 94 97  1  0  0  0  0
 96 97  1  0  0  0  0
 97 98  1  0  0  0  0
 97 99  1  0  0  0  0
M  END
