
  xtb     01142213063D
 xtb: 6.4.1 (1a32961)
105113  0     0  0            999 V2000
   -0.9419   -2.0282   -0.3018 N   0  0  0  0  0  0  0  0  0  0  0  0
   -2.1935   -1.5554   -0.4313 C   0  0  0  0  0  0  0  0  0  0  0  0
   -3.1204   -2.1962   -1.2630 C   0  0  0  0  0  0  0  0  0  0  0  0
   -2.7528   -3.3250   -1.9622 C   0  0  0  0  0  0  0  0  0  0  0  0
   -1.4520   -3.8005   -1.8191 C   0  0  0  0  0  0  0  0  0  0  0  0
   -0.5951   -3.1165   -0.9823 C   0  0  0  0  0  0  0  0  0  0  0  0
    0.4234   -3.4501   -0.8407 H   0  0  0  0  0  0  0  0  0  0  0  0
   -1.1189   -4.6808   -2.3448 H   0  0  0  0  0  0  0  0  0  0  0  0
   -4.1248   -1.8179   -1.3600 H   0  0  0  0  0  0  0  0  0  0  0  0
   -2.5169   -0.3599    0.3356 C   0  0  0  0  0  0  0  0  0  0  0  0
   -1.5464    0.1242    1.1373 N   0  0  0  0  0  0  0  0  0  0  0  0
   -1.8093    1.1942    1.8823 C   0  0  0  0  0  0  0  0  0  0  0  0
   -3.0221    1.8535    1.8712 C   0  0  0  0  0  0  0  0  0  0  0  0
   -4.0234    1.3865    1.0250 C   0  0  0  0  0  0  0  0  0  0  0  0
   -3.7623    0.2737    0.2545 C   0  0  0  0  0  0  0  0  0  0  0  0
   -4.5248   -0.0993   -0.4092 H   0  0  0  0  0  0  0  0  0  0  0  0
   -3.1821    2.7105    2.5059 H   0  0  0  0  0  0  0  0  0  0  0  0
   -0.9963    1.5322    2.5068 H   0  0  0  0  0  0  0  0  0  0  0  0
    0.4215   -0.8165    0.9133 Ir  0  0  0  0  0  0  0  0  0  0  0  0
    0.8726   -2.2303    1.5405 H   0  0  0  0  0  0  0  0  0  0  0  0
    0.3933    0.5614   -0.6505 B   0  0  0  0  0  0  0  0  0  0  0  0
   -0.1735    0.2033   -1.8597 O   0  0  0  0  0  0  0  0  0  0  0  0
   -0.3002    1.3517   -2.7050 C   0  0  0  0  0  0  0  0  0  0  0  0
    0.0494    0.9706   -4.1415 C   0  0  0  0  0  0  0  0  0  0  0  0
    1.0079    0.4637   -4.1788 H   0  0  0  0  0  0  0  0  0  0  0  0
    0.0776    1.8575   -4.7694 H   0  0  0  0  0  0  0  0  0  0  0  0
   -0.7087    0.2920   -4.5247 H   0  0  0  0  0  0  0  0  0  0  0  0
   -1.7684    1.7967   -2.6419 C   0  0  0  0  0  0  0  0  0  0  0  0
   -1.9525    2.6391   -3.3022 H   0  0  0  0  0  0  0  0  0  0  0  0
   -2.3970    0.9620   -2.9455 H   0  0  0  0  0  0  0  0  0  0  0  0
   -2.0349    2.0638   -1.6211 H   0  0  0  0  0  0  0  0  0  0  0  0
    0.6735    2.3754   -2.0341 C   0  0  0  0  0  0  0  0  0  0  0  0
    0.7521    1.8911   -0.6858 O   0  0  0  0  0  0  0  0  0  0  0  0
    2.0907    2.2992   -2.6155 C   0  0  0  0  0  0  0  0  0  0  0  0
    2.4573    1.2805   -2.5160 H   0  0  0  0  0  0  0  0  0  0  0  0
    2.1116    2.6171   -3.6539 H   0  0  0  0  0  0  0  0  0  0  0  0
    2.7434    2.9458   -2.0342 H   0  0  0  0  0  0  0  0  0  0  0  0
    0.1940    3.8254   -2.0413 C   0  0  0  0  0  0  0  0  0  0  0  0
   -0.7297    3.9386   -1.4825 H   0  0  0  0  0  0  0  0  0  0  0  0
    0.9504    4.4523   -1.5754 H   0  0  0  0  0  0  0  0  0  0  0  0
    0.0425    4.1611   -3.0640 H   0  0  0  0  0  0  0  0  0  0  0  0
    1.6256    0.6432    1.8257 B   0  0  0  0  0  0  0  0  0  0  0  0
    2.9731    0.8615    1.6795 O   0  0  0  0  0  0  0  0  0  0  0  0
    3.3418    2.1311    2.2318 C   0  0  0  0  0  0  0  0  0  0  0  0
    4.6728    2.0039    2.9730 C   0  0  0  0  0  0  0  0  0  0  0  0
    4.6329    1.2078    3.7082 H   0  0  0  0  0  0  0  0  0  0  0  0
    5.4549    1.7653    2.2567 H   0  0  0  0  0  0  0  0  0  0  0  0
    4.9215    2.9423    3.4616 H   0  0  0  0  0  0  0  0  0  0  0  0
    3.5097    3.0892    1.0463 C   0  0  0  0  0  0  0  0  0  0  0  0
    3.7747    4.0903    1.3737 H   0  0  0  0  0  0  0  0  0  0  0  0
    4.2972    2.7051    0.4021 H   0  0  0  0  0  0  0  0  0  0  0  0
    2.5873    3.1035    0.4722 H   0  0  0  0  0  0  0  0  0  0  0  0
    2.1126    2.4894    3.1375 C   0  0  0  0  0  0  0  0  0  0  0  0
    1.0887    1.6168    2.6446 O   0  0  0  0  0  0  0  0  0  0  0  0
    1.6334    3.9370    3.0278 C   0  0  0  0  0  0  0  0  0  0  0  0
    1.3017    4.1548    2.0182 H   0  0  0  0  0  0  0  0  0  0  0  0
    0.7926    4.0842    3.7016 H   0  0  0  0  0  0  0  0  0  0  0  0
    2.4304    4.6201    3.3088 H   0  0  0  0  0  0  0  0  0  0  0  0
    2.3273    2.1427    4.6160 C   0  0  0  0  0  0  0  0  0  0  0  0
    2.5953    1.0952    4.7059 H   0  0  0  0  0  0  0  0  0  0  0  0
    3.0982    2.7655    5.0593 H   0  0  0  0  0  0  0  0  0  0  0  0
    1.3934    2.2980    5.1514 H   0  0  0  0  0  0  0  0  0  0  0  0
    2.2782   -1.3309    0.1741 B   0  0  0  0  0  0  0  0  0  0  0  0
    3.0754   -2.3651    0.6195 O   0  0  0  0  0  0  0  0  0  0  0  0
    4.3640   -2.3059   -0.0040 C   0  0  0  0  0  0  0  0  0  0  0  0
    5.3151   -1.6734    1.0177 C   0  0  0  0  0  0  0  0  0  0  0  0
    4.8986   -0.7219    1.3361 H   0  0  0  0  0  0  0  0  0  0  0  0
    5.3691   -2.3293    1.8828 H   0  0  0  0  0  0  0  0  0  0  0  0
    6.3127   -1.5431    0.6099 H   0  0  0  0  0  0  0  0  0  0  0  0
    4.8375   -3.7226   -0.3297 C   0  0  0  0  0  0  0  0  0  0  0  0
    4.9540   -4.2738    0.5997 H   0  0  0  0  0  0  0  0  0  0  0  0
    5.7946   -3.6886   -0.8427 H   0  0  0  0  0  0  0  0  0  0  0  0
    4.1152   -4.2494   -0.9441 H   0  0  0  0  0  0  0  0  0  0  0  0
    4.1061   -1.3864   -1.2487 C   0  0  0  0  0  0  0  0  0  0  0  0
    2.8780   -0.7274   -0.9090 O   0  0  0  0  0  0  0  0  0  0  0  0
    5.1837   -0.3331   -1.5015 C   0  0  0  0  0  0  0  0  0  0  0  0
    6.1497   -0.8064   -1.6541 H   0  0  0  0  0  0  0  0  0  0  0  0
    4.9250    0.2334   -2.3926 H   0  0  0  0  0  0  0  0  0  0  0  0
    5.2349    0.3554   -0.6655 H   0  0  0  0  0  0  0  0  0  0  0  0
    3.8567   -2.1730   -2.5431 C   0  0  0  0  0  0  0  0  0  0  0  0
    3.0551   -2.8915   -2.3962 H   0  0  0  0  0  0  0  0  0  0  0  0
    3.5428   -1.4770   -3.3174 H   0  0  0  0  0  0  0  0  0  0  0  0
    4.7573   -2.6836   -2.8707 H   0  0  0  0  0  0  0  0  0  0  0  0
   -3.4584   -3.8281   -2.6061 H   0  0  0  0  0  0  0  0  0  0  0  0
   -4.9823    1.8803    0.9736 H   0  0  0  0  0  0  0  0  0  0  0  0
    0.2359   -1.6814    2.9603 C   0  0  0  0  0  0  0  0  0  0  0  0
   -1.0610   -2.0111    3.3432 C   0  0  0  0  0  0  0  0  0  0  0  0
    1.1722   -1.6693    4.0055 C   0  0  0  0  0  0  0  0  0  0  0  0
   -1.4238   -2.2091    4.6919 C   0  0  0  0  0  0  0  0  0  0  0  0
   -2.2025   -2.2079    2.5837 N   0  0  0  0  0  0  0  0  0  0  0  0
    2.4646   -1.4416    3.6305 O   0  0  0  0  0  0  0  0  0  0  0  0
    0.8050   -1.8762    5.3391 C   0  0  0  0  0  0  0  0  0  0  0  0
   -0.5046   -2.1403    5.7132 C   0  0  0  0  0  0  0  0  0  0  0  0
   -2.7611   -2.4964    4.7274 O   0  0  0  0  0  0  0  0  0  0  0  0
   -3.1423   -2.4780    3.4176 C   0  0  0  0  0  0  0  0  0  0  0  0
    3.5015   -1.6749    4.5569 C   0  0  0  0  0  0  0  0  0  0  0  0
    1.5504   -1.8362    6.1168 H   0  0  0  0  0  0  0  0  0  0  0  0
   -0.7796   -2.2962    6.7432 H   0  0  0  0  0  0  0  0  0  0  0  0
   -4.5571   -2.7652    3.0897 C   0  0  0  0  0  0  0  0  0  0  0  0
    4.4213   -1.5280    3.9942 H   0  0  0  0  0  0  0  0  0  0  0  0
    3.4686   -2.6985    4.9449 H   0  0  0  0  0  0  0  0  0  0  0  0
    3.4770   -0.9715    5.3975 H   0  0  0  0  0  0  0  0  0  0  0  0
   -4.7151   -2.5837    2.0318 H   0  0  0  0  0  0  0  0  0  0  0  0
   -5.2112   -2.1291    3.6828 H   0  0  0  0  0  0  0  0  0  0  0  0
   -4.7887   -3.8035    3.3226 H   0  0  0  0  0  0  0  0  0  0  0  0
  1  2  4  0  0  0  0
  2  3  4  0  0  0  0
  3  4  4  0  0  0  0
  4  5  4  0  0  0  0
  1  6  4  0  0  0  0
  5  6  4  0  0  0  0
  6  7  1  0  0  0  0
  5  8  1  0  0  0  0
  3  9  1  0  0  0  0
  2 10  1  0  0  0  0
 10 11  4  0  0  0  0
 11 12  4  0  0  0  0
 12 13  4  0  0  0  0
 13 14  4  0  0  0  0
 10 15  4  0  0  0  0
 14 15  4  0  0  0  0
 15 16  1  0  0  0  0
 13 17  1  0  0  0  0
 12 18  1  0  0  0  0
  1 19  1  0  0  0  0
 11 19  1  0  0  0  0
 19 20  1  0  0  0  0
 19 21  1  0  0  0  0
 21 22  1  0  0  0  0
 22 23  1  0  0  0  0
 23 24  1  0  0  0  0
 24 25  1  0  0  0  0
 24 26  1  0  0  0  0
 24 27  1  0  0  0  0
 23 28  1  0  0  0  0
 28 29  1  0  0  0  0
 28 30  1  0  0  0  0
 28 31  1  0  0  0  0
 23 32  1  0  0  0  0
 21 33  1  0  0  0  0
 32 33  1  0  0  0  0
 32 34  1  0  0  0  0
 34 35  1  0  0  0  0
 34 36  1  0  0  0  0
 34 37  1  0  0  0  0
 32 38  1  0  0  0  0
 38 39  1  0  0  0  0
 38 40  1  0  0  0  0
 38 41  1  0  0  0  0
 19 42  1  0  0  0  0
 42 43  1  0  0  0  0
 43 44  1  0  0  0  0
 44 45  1  0  0  0  0
 45 46  1  0  0  0  0
 45 47  1  0  0  0  0
 45 48  1  0  0  0  0
 44 49  1  0  0  0  0
 49 50  1  0  0  0  0
 49 51  1  0  0  0  0
 49 52  1  0  0  0  0
 44 53  1  0  0  0  0
 42 54  1  0  0  0  0
 53 54  1  0  0  0  0
 53 55  1  0  0  0  0
 55 56  1  0  0  0  0
 55 57  1  0  0  0  0
 55 58  1  0  0  0  0
 53 59  1  0  0  0  0
 59 60  1  0  0  0  0
 59 61  1  0  0  0  0
 59 62  1  0  0  0  0
 19 63  1  0  0  0  0
 63 64  1  0  0  0  0
 64 65  1  0  0  0  0
 65 66  1  0  0  0  0
 66 67  1  0  0  0  0
 66 68  1  0  0  0  0
 66 69  1  0  0  0  0
 65 70  1  0  0  0  0
 70 71  1  0  0  0  0
 70 72  1  0  0  0  0
 70 73  1  0  0  0  0
 65 74  1  0  0  0  0
 63 75  1  0  0  0  0
 74 75  1  0  0  0  0
 74 76  1  0  0  0  0
 76 77  1  0  0  0  0
 76 78  1  0  0  0  0
 76 79  1  0  0  0  0
 74 80  1  0  0  0  0
 80 81  1  0  0  0  0
 80 82  1  0  0  0  0
 80 83  1  0  0  0  0
  4 84  1  0  0  0  0
 14 85  1  0  0  0  0
 19 86  1  0  0  0  0
 20 86  1  0  0  0  0
 86 87  4  0  0  0  0
 86 88  4  0  0  0  0
 87 89  4  0  0  0  0
 87 90  1  0  0  0  0
 88 91  1  0  0  0  0
 88 92  4  0  0  0  0
 89 93  4  0  0  0  0
 92 93  4  0  0  0  0
 89 94  1  0  0  0  0
 90 95  2  0  0  0  0
 94 95  1  0  0  0  0
 91 96  1  0  0  0  0
 92 97  1  0  0  0  0
 93 98  1  0  0  0  0
 95 99  1  0  0  0  0
 96100  1  0  0  0  0
 96101  1  0  0  0  0
 96102  1  0  0  0  0
 99103  1  0  0  0  0
 99104  1  0  0  0  0
 99105  1  0  0  0  0
M  END
