21

C         -1.01240       -1.43000        0.01319
C         -2.16414       -0.64034        0.01883
C         -2.03406        0.74242        0.03210
N         -0.86739        1.42490        0.04618
C          0.20924        0.61636        0.04007
N          1.50133        1.05765        0.04669
C          2.35868       -0.01101        0.02378
C          1.60640       -1.17450        0.00029
C          0.23117       -0.77452        0.01884
C          2.14446       -2.56812       -0.05761
C          2.41568       -3.15398        1.31864
H         -1.07932       -2.51221        0.00149
H         -3.14784       -1.09718        0.01044
H         -2.92084        1.37225        0.03107
H          1.75579        2.03391        0.05856
H          3.42942        0.14441        0.01836
H          3.07559       -2.57130       -0.63765
H          1.44225       -3.21539       -0.59581
H          3.13282       -2.54251        1.87726
H          2.83349       -4.16213        1.22417
H          1.49716       -3.22103        1.91053
