    9
Created with kallisto
C      1.0025    0.7017   -0.0004
C     -0.3089    1.1223    0.0030
C      0.9922   -0.7136   -0.0009
N     -1.1097    0.0099   -0.0015
H     -0.7385    2.1150    0.0071
C     -0.3250   -1.1139    0.0023
H      1.8529   -1.3700   -0.0019
H     -2.1214    0.0170   -0.0055
H     -0.7695   -2.1002    0.0056
