
  xtb     10082107163D
 xtb: 6.4.0 (f63f532)
106114  0     0  0            999 V2000
   -0.8809   -1.9837   -0.4650 N   0  0  0  0  0  0  0  0  0  0  0  0
   -2.1318   -1.5095   -0.6136 C   0  0  0  0  0  0  0  0  0  0  0  0
   -2.9455   -1.9384   -1.6689 C   0  0  0  0  0  0  0  0  0  0  0  0
   -2.4692   -2.8691   -2.5663 C   0  0  0  0  0  0  0  0  0  0  0  0
   -1.1791   -3.3625   -2.3919 C   0  0  0  0  0  0  0  0  0  0  0  0
   -0.4331   -2.8850   -1.3346 C   0  0  0  0  0  0  0  0  0  0  0  0
    0.5750   -3.2347   -1.1630 H   0  0  0  0  0  0  0  0  0  0  0  0
   -0.7671   -4.0951   -3.0666 H   0  0  0  0  0  0  0  0  0  0  0  0
   -3.9362   -1.5343   -1.7973 H   0  0  0  0  0  0  0  0  0  0  0  0
   -2.5674   -0.5175    0.3631 C   0  0  0  0  0  0  0  0  0  0  0  0
   -1.6248   -0.0439    1.2045 N   0  0  0  0  0  0  0  0  0  0  0  0
   -1.9736    0.8738    2.1030 C   0  0  0  0  0  0  0  0  0  0  0  0
   -3.2568    1.3654    2.2314 C   0  0  0  0  0  0  0  0  0  0  0  0
   -4.2442    0.8763    1.3803 C   0  0  0  0  0  0  0  0  0  0  0  0
   -3.8914   -0.0682    0.4404 C   0  0  0  0  0  0  0  0  0  0  0  0
   -4.6430   -0.4670   -0.2206 H   0  0  0  0  0  0  0  0  0  0  0  0
   -3.4835    2.1041    2.9831 H   0  0  0  0  0  0  0  0  0  0  0  0
   -1.1731    1.2245    2.7362 H   0  0  0  0  0  0  0  0  0  0  0  0
    0.4215   -0.8165    0.9133 Ir  0  0  0  0  0  0  0  0  0  0  0  0
    0.8726   -2.2303    1.5405 H   0  0  0  0  0  0  0  0  0  0  0  0
    0.3664    0.6761   -0.5484 B   0  0  0  0  0  0  0  0  0  0  0  0
   -0.3658    0.4856   -1.7091 O   0  0  0  0  0  0  0  0  0  0  0  0
   -0.5229    1.7311   -2.3971 C   0  0  0  0  0  0  0  0  0  0  0  0
   -0.4153    1.5091   -3.9034 C   0  0  0  0  0  0  0  0  0  0  0  0
    0.4912    0.9666   -4.1503 H   0  0  0  0  0  0  0  0  0  0  0  0
   -0.4226    2.4640   -4.4228 H   0  0  0  0  0  0  0  0  0  0  0  0
   -1.2657    0.9197   -4.2382 H   0  0  0  0  0  0  0  0  0  0  0  0
   -1.9287    2.2508   -2.0616 C   0  0  0  0  0  0  0  0  0  0  0  0
   -2.1414    3.1783   -2.5848 H   0  0  0  0  0  0  0  0  0  0  0  0
   -2.6577    1.4997   -2.3601 H   0  0  0  0  0  0  0  0  0  0  0  0
   -2.0230    2.4038   -0.9883 H   0  0  0  0  0  0  0  0  0  0  0  0
    0.6097    2.6091   -1.7722 C   0  0  0  0  0  0  0  0  0  0  0  0
    0.8336    1.9693   -0.5087 O   0  0  0  0  0  0  0  0  0  0  0  0
    1.9253    2.5145   -2.5541 C   0  0  0  0  0  0  0  0  0  0  0  0
    2.2105    1.4694   -2.6494 H   0  0  0  0  0  0  0  0  0  0  0  0
    1.8391    2.9776   -3.5327 H   0  0  0  0  0  0  0  0  0  0  0  0
    2.7037    3.0207   -1.9879 H   0  0  0  0  0  0  0  0  0  0  0  0
    0.2455    4.0766   -1.5570 C   0  0  0  0  0  0  0  0  0  0  0  0
   -0.5638    4.1790   -0.8406 H   0  0  0  0  0  0  0  0  0  0  0  0
    1.1118    4.6061   -1.1677 H   0  0  0  0  0  0  0  0  0  0  0  0
   -0.0458    4.5301   -2.5009 H   0  0  0  0  0  0  0  0  0  0  0  0
    1.5288    0.6552    1.8931 B   0  0  0  0  0  0  0  0  0  0  0  0
    2.8865    0.8445    1.9005 O   0  0  0  0  0  0  0  0  0  0  0  0
    3.2106    2.0962    2.5248 C   0  0  0  0  0  0  0  0  0  0  0  0
    4.4484    1.9267    3.4042 C   0  0  0  0  0  0  0  0  0  0  0  0
    4.3164    1.1153    4.1121 H   0  0  0  0  0  0  0  0  0  0  0  0
    5.3021    1.6903    2.7743 H   0  0  0  0  0  0  0  0  0  0  0  0
    4.6539    2.8489    3.9409 H   0  0  0  0  0  0  0  0  0  0  0  0
    3.5178    3.0801    1.3894 C   0  0  0  0  0  0  0  0  0  0  0  0
    3.7472    4.0708    1.7699 H   0  0  0  0  0  0  0  0  0  0  0  0
    4.3742    2.7088    0.8310 H   0  0  0  0  0  0  0  0  0  0  0  0
    2.6672    3.1157    0.7138 H   0  0  0  0  0  0  0  0  0  0  0  0
    1.8946    2.4499    3.3015 C   0  0  0  0  0  0  0  0  0  0  0  0
    0.9159    1.6159    2.6655 O   0  0  0  0  0  0  0  0  0  0  0  0
    1.4556    3.9093    3.1880 C   0  0  0  0  0  0  0  0  0  0  0  0
    1.2352    4.1623    2.1562 H   0  0  0  0  0  0  0  0  0  0  0  0
    0.5523    4.0553    3.7753 H   0  0  0  0  0  0  0  0  0  0  0  0
    2.2313    4.5666    3.5710 H   0  0  0  0  0  0  0  0  0  0  0  0
    1.9365    2.0505    4.7821 C   0  0  0  0  0  0  0  0  0  0  0  0
    2.1738    0.9949    4.8816 H   0  0  0  0  0  0  0  0  0  0  0  0
    2.6613    2.6471    5.3271 H   0  0  0  0  0  0  0  0  0  0  0  0
    0.9517    2.2113    5.2149 H   0  0  0  0  0  0  0  0  0  0  0  0
    2.2782   -1.3309    0.1741 B   0  0  0  0  0  0  0  0  0  0  0  0
    3.1817   -2.1945    0.7513 O   0  0  0  0  0  0  0  0  0  0  0  0
    4.4437   -2.1237    0.0741 C   0  0  0  0  0  0  0  0  0  0  0  0
    5.3674   -1.2827    0.9615 C   0  0  0  0  0  0  0  0  0  0  0  0
    4.8899   -0.3280    1.1614 H   0  0  0  0  0  0  0  0  0  0  0  0
    5.4947   -1.7976    1.9104 H   0  0  0  0  0  0  0  0  0  0  0  0
    6.3407   -1.1396    0.5025 H   0  0  0  0  0  0  0  0  0  0  0  0
    5.0243   -3.5309   -0.0680 C   0  0  0  0  0  0  0  0  0  0  0  0
    5.2209   -3.9289    0.9239 H   0  0  0  0  0  0  0  0  0  0  0  0
    5.9562   -3.4958   -0.6253 H   0  0  0  0  0  0  0  0  0  0  0  0
    4.3288   -4.1988   -0.5652 H   0  0  0  0  0  0  0  0  0  0  0  0
    4.0771   -1.4173   -1.2806 C   0  0  0  0  0  0  0  0  0  0  0  0
    2.7871   -0.8488   -1.0094 O   0  0  0  0  0  0  0  0  0  0  0  0
    5.0293   -0.2969   -1.6972 C   0  0  0  0  0  0  0  0  0  0  0  0
    6.0393   -0.6793   -1.8142 H   0  0  0  0  0  0  0  0  0  0  0  0
    4.6972    0.1151   -2.6468 H   0  0  0  0  0  0  0  0  0  0  0  0
    5.0182    0.4993   -0.9609 H   0  0  0  0  0  0  0  0  0  0  0  0
    3.9092   -2.3933   -2.4529 C   0  0  0  0  0  0  0  0  0  0  0  0
    3.2000   -3.1749   -2.1954 H   0  0  0  0  0  0  0  0  0  0  0  0
    3.5118   -1.8474   -3.3052 H   0  0  0  0  0  0  0  0  0  0  0  0
    4.8605   -2.8374   -2.7297 H   0  0  0  0  0  0  0  0  0  0  0  0
   -3.0831   -3.2043   -3.3884 H   0  0  0  0  0  0  0  0  0  0  0  0
   -5.2630    1.2250    1.4544 H   0  0  0  0  0  0  0  0  0  0  0  0
    0.2359   -1.6814    2.9603 C   0  0  0  0  0  0  0  0  0  0  0  0
   -1.0086   -2.1344    3.3956 C   0  0  0  0  0  0  0  0  0  0  0  0
    1.2133   -1.5319    3.9476 C   0  0  0  0  0  0  0  0  0  0  0  0
   -1.2399   -2.3300    4.7489 C   0  0  0  0  0  0  0  0  0  0  0  0
   -1.8009   -2.3506    2.6913 H   0  0  0  0  0  0  0  0  0  0  0  0
    1.0027   -1.7177    5.2383 N   0  0  0  0  0  0  0  0  0  0  0  0
    2.2246   -1.2626    3.6728 H   0  0  0  0  0  0  0  0  0  0  0  0
   -0.2036   -2.1021    5.6440 C   0  0  0  0  0  0  0  0  0  0  0  0
   -2.1995   -2.6796    5.1017 H   0  0  0  0  0  0  0  0  0  0  0  0
   -0.3550   -2.3706    7.1241 C   0  0  0  0  0  0  0  0  0  0  0  0
   -0.3683   -3.7918    7.3752 N   0  0  0  0  0  0  0  0  0  0  0  0
   -1.2884   -1.9452    7.4995 H   0  0  0  0  0  0  0  0  0  0  0  0
    0.4929   -1.9167    7.6442 H   0  0  0  0  0  0  0  0  0  0  0  0
   -1.4494   -4.5375    7.7167 C   0  0  0  0  0  0  0  0  0  0  0  0
    0.6995   -4.6157    7.2193 C   0  0  0  0  0  0  0  0  0  0  0  0
   -1.0697   -5.8510    7.7944 C   0  0  0  0  0  0  0  0  0  0  0  0
   -2.4061   -4.0844    7.8915 H   0  0  0  0  0  0  0  0  0  0  0  0
    0.3013   -5.9004    7.4753 C   0  0  0  0  0  0  0  0  0  0  0  0
    1.6566   -4.2259    6.9339 H   0  0  0  0  0  0  0  0  0  0  0  0
   -1.6971   -6.6824    8.0527 H   0  0  0  0  0  0  0  0  0  0  0  0
    0.9184   -6.7778    7.4420 H   0  0  0  0  0  0  0  0  0  0  0  0
  1  2  4  0  0  0  0
  2  3  4  0  0  0  0
  3  4  4  0  0  0  0
  4  5  4  0  0  0  0
  1  6  4  0  0  0  0
  5  6  4  0  0  0  0
  6  7  1  0  0  0  0
  5  8  1  0  0  0  0
  3  9  1  0  0  0  0
  2 10  1  0  0  0  0
 10 11  4  0  0  0  0
 11 12  4  0  0  0  0
 12 13  4  0  0  0  0
 13 14  4  0  0  0  0
 10 15  4  0  0  0  0
 14 15  4  0  0  0  0
 15 16  1  0  0  0  0
 13 17  1  0  0  0  0
 12 18  1  0  0  0  0
  1 19  1  0  0  0  0
 11 19  1  0  0  0  0
 19 20  1  0  0  0  0
 19 21  1  0  0  0  0
 21 22  1  0  0  0  0
 22 23  1  0  0  0  0
 23 24  1  0  0  0  0
 24 25  1  0  0  0  0
 24 26  1  0  0  0  0
 24 27  1  0  0  0  0
 23 28  1  0  0  0  0
 28 29  1  0  0  0  0
 28 30  1  0  0  0  0
 28 31  1  0  0  0  0
 23 32  1  0  0  0  0
 21 33  1  0  0  0  0
 32 33  1  0  0  0  0
 32 34  1  0  0  0  0
 34 35  1  0  0  0  0
 34 36  1  0  0  0  0
 34 37  1  0  0  0  0
 32 38  1  0  0  0  0
 38 39  1  0  0  0  0
 38 40  1  0  0  0  0
 38 41  1  0  0  0  0
 19 42  1  0  0  0  0
 42 43  1  0  0  0  0
 43 44  1  0  0  0  0
 44 45  1  0  0  0  0
 45 46  1  0  0  0  0
 45 47  1  0  0  0  0
 45 48  1  0  0  0  0
 44 49  1  0  0  0  0
 49 50  1  0  0  0  0
 49 51  1  0  0  0  0
 49 52  1  0  0  0  0
 44 53  1  0  0  0  0
 42 54  1  0  0  0  0
 53 54  1  0  0  0  0
 53 55  1  0  0  0  0
 55 56  1  0  0  0  0
 55 57  1  0  0  0  0
 55 58  1  0  0  0  0
 53 59  1  0  0  0  0
 59 60  1  0  0  0  0
 59 61  1  0  0  0  0
 59 62  1  0  0  0  0
 19 63  1  0  0  0  0
 63 64  1  0  0  0  0
 64 65  1  0  0  0  0
 65 66  1  0  0  0  0
 66 67  1  0  0  0  0
 66 68  1  0  0  0  0
 66 69  1  0  0  0  0
 65 70  1  0  0  0  0
 70 71  1  0  0  0  0
 70 72  1  0  0  0  0
 70 73  1  0  0  0  0
 65 74  1  0  0  0  0
 63 75  1  0  0  0  0
 74 75  1  0  0  0  0
 74 76  1  0  0  0  0
 76 77  1  0  0  0  0
 76 78  1  0  0  0  0
 76 79  1  0  0  0  0
 74 80  1  0  0  0  0
 80 81  1  0  0  0  0
 80 82  1  0  0  0  0
 80 83  1  0  0  0  0
  4 84  1  0  0  0  0
 14 85  1  0  0  0  0
 19 86  1  0  0  0  0
 20 86  1  0  0  0  0
 86 87  4  0  0  0  0
 86 88  4  0  0  0  0
 87 89  4  0  0  0  0
 87 90  1  0  0  0  0
 88 91  4  0  0  0  0
 88 92  1  0  0  0  0
 89 93  4  0  0  0  0
 91 93  4  0  0  0  0
 89 94  1  0  0  0  0
 93 95  1  0  0  0  0
 95 96  1  0  0  0  0
 95 97  1  0  0  0  0
 95 98  1  0  0  0  0
 96 99  4  0  0  0  0
 96100  4  0  0  0  0
 99101  2  0  0  0  0
 99102  1  0  0  0  0
100103  2  0  0  0  0
101103  4  0  0  0  0
100104  1  0  0  0  0
101105  1  0  0  0  0
103106  1  0  0  0  0
M  END
