   20

S         -1.44788       -0.20236        1.45013
C         -1.76124        1.31888        0.74684
C         -1.33053        1.37912       -0.55608
C         -0.70594        0.16566       -0.96598
C         -0.61611       -0.77462        0.04831
C          0.00138       -2.16659       -0.00567
S          1.35563       -2.31622       -1.22701
C          2.50564       -1.10039       -0.53110
C          2.95783       -1.35644        0.90047
C          1.90782       -1.64987        1.96662
S          0.62615       -2.86390        1.55716
H         -2.26960        2.08782        1.31141
H         -1.45548        2.24876       -1.18799
H         -0.79078       -2.84301       -0.34542
H          2.07708       -0.09902       -0.62633
H          3.39175       -1.10583       -1.17678
H          3.51199       -0.46594        1.23003
H          3.69498       -2.16875        0.89645
H          1.42726       -0.72470        2.29611
H          2.42799       -2.04382        2.84815
