
  xtb     10082107103D
 xtb: 6.4.0 (f63f532)
 97104  0     0  0            999 V2000
   -0.9569   -1.9696   -0.4145 N   0  0  0  0  0  0  0  0  0  0  0  0
   -2.1597   -1.3981   -0.6290 C   0  0  0  0  0  0  0  0  0  0  0  0
   -2.9878   -1.8342   -1.6701 C   0  0  0  0  0  0  0  0  0  0  0  0
   -2.5760   -2.8619   -2.4899 C   0  0  0  0  0  0  0  0  0  0  0  0
   -1.3328   -3.4451   -2.2548 C   0  0  0  0  0  0  0  0  0  0  0  0
   -0.5702   -2.9613   -1.2132 C   0  0  0  0  0  0  0  0  0  0  0  0
    0.3982   -3.3868   -0.9885 H   0  0  0  0  0  0  0  0  0  0  0  0
   -0.9717   -4.2538   -2.8691 H   0  0  0  0  0  0  0  0  0  0  0  0
   -3.9430   -1.3663   -1.8437 H   0  0  0  0  0  0  0  0  0  0  0  0
   -2.5234   -0.3140    0.2739 C   0  0  0  0  0  0  0  0  0  0  0  0
   -1.5842    0.0604    1.1712 N   0  0  0  0  0  0  0  0  0  0  0  0
   -1.8767    1.0309    2.0343 C   0  0  0  0  0  0  0  0  0  0  0  0
   -3.0869    1.6941    2.0534 C   0  0  0  0  0  0  0  0  0  0  0  0
   -4.0587    1.3325    1.1234 C   0  0  0  0  0  0  0  0  0  0  0  0
   -3.7712    0.3202    0.2331 C   0  0  0  0  0  0  0  0  0  0  0  0
   -4.5150    0.0188   -0.4857 H   0  0  0  0  0  0  0  0  0  0  0  0
   -3.2704    2.4708    2.7779 H   0  0  0  0  0  0  0  0  0  0  0  0
   -1.0899    1.2831    2.7281 H   0  0  0  0  0  0  0  0  0  0  0  0
    0.4215   -0.8165    0.9133 Ir  0  0  0  0  0  0  0  0  0  0  0  0
    0.8726   -2.2303    1.5405 H   0  0  0  0  0  0  0  0  0  0  0  0
    0.4634    0.5630   -0.6568 B   0  0  0  0  0  0  0  0  0  0  0  0
   -0.1489    0.2292   -1.8530 O   0  0  0  0  0  0  0  0  0  0  0  0
   -0.2038    1.3677   -2.7164 C   0  0  0  0  0  0  0  0  0  0  0  0
    0.0904    0.9338   -4.1504 C   0  0  0  0  0  0  0  0  0  0  0  0
    1.0161    0.3699   -4.1979 H   0  0  0  0  0  0  0  0  0  0  0  0
    0.1559    1.8025   -4.8005 H   0  0  0  0  0  0  0  0  0  0  0  0
   -0.7158    0.2925   -4.4994 H   0  0  0  0  0  0  0  0  0  0  0  0
   -1.6352    1.9183   -2.6399 C   0  0  0  0  0  0  0  0  0  0  0  0
   -1.7658    2.7689   -3.3021 H   0  0  0  0  0  0  0  0  0  0  0  0
   -2.3256    1.1298   -2.9332 H   0  0  0  0  0  0  0  0  0  0  0  0
   -1.8694    2.2079   -1.6174 H   0  0  0  0  0  0  0  0  0  0  0  0
    0.8534    2.3292   -2.0804 C   0  0  0  0  0  0  0  0  0  0  0  0
    0.9344    1.8543   -0.7294 O   0  0  0  0  0  0  0  0  0  0  0  0
    2.2470    2.1565   -2.6971 C   0  0  0  0  0  0  0  0  0  0  0  0
    2.5525    1.1181   -2.5952 H   0  0  0  0  0  0  0  0  0  0  0  0
    2.2610    2.4610   -3.7397 H   0  0  0  0  0  0  0  0  0  0  0  0
    2.9549    2.7669   -2.1412 H   0  0  0  0  0  0  0  0  0  0  0  0
    0.4707    3.8080   -2.0908 C   0  0  0  0  0  0  0  0  0  0  0  0
   -0.4257    3.9879   -1.5054 H   0  0  0  0  0  0  0  0  0  0  0  0
    1.2809    4.3877   -1.6548 H   0  0  0  0  0  0  0  0  0  0  0  0
    0.3109    4.1439   -3.1123 H   0  0  0  0  0  0  0  0  0  0  0  0
    1.5905    0.6565    1.8232 B   0  0  0  0  0  0  0  0  0  0  0  0
    2.9620    0.7322    1.9016 O   0  0  0  0  0  0  0  0  0  0  0  0
    3.3565    2.0463    2.3204 C   0  0  0  0  0  0  0  0  0  0  0  0
    4.5494    1.9526    3.2707 C   0  0  0  0  0  0  0  0  0  0  0  0
    4.3414    1.2796    4.0959 H   0  0  0  0  0  0  0  0  0  0  0  0
    5.4078    1.5653    2.7275 H   0  0  0  0  0  0  0  0  0  0  0  0
    4.7961    2.9378    3.6575 H   0  0  0  0  0  0  0  0  0  0  0  0
    3.7706    2.7989    1.0503 C   0  0  0  0  0  0  0  0  0  0  0  0
    4.0768    3.8175    1.2694 H   0  0  0  0  0  0  0  0  0  0  0  0
    4.6022    2.2704    0.5896 H   0  0  0  0  0  0  0  0  0  0  0  0
    2.9393    2.7880    0.3505 H   0  0  0  0  0  0  0  0  0  0  0  0
    2.0428    2.6148    2.9592 C   0  0  0  0  0  0  0  0  0  0  0  0
    1.0278    1.7709    2.4000 O   0  0  0  0  0  0  0  0  0  0  0  0
    1.7363    4.0691    2.6041 C   0  0  0  0  0  0  0  0  0  0  0  0
    1.5722    4.1719    1.5367 H   0  0  0  0  0  0  0  0  0  0  0  0
    0.8300    4.3784    3.1189 H   0  0  0  0  0  0  0  0  0  0  0  0
    2.5540    4.7133    2.9160 H   0  0  0  0  0  0  0  0  0  0  0  0
    1.9899    2.4451    4.4830 C   0  0  0  0  0  0  0  0  0  0  0  0
    2.1515    1.4042    4.7487 H   0  0  0  0  0  0  0  0  0  0  0  0
    2.7298    3.0719    4.9717 H   0  0  0  0  0  0  0  0  0  0  0  0
    1.0001    2.7291    4.8328 H   0  0  0  0  0  0  0  0  0  0  0  0
    2.2782   -1.3309    0.1741 B   0  0  0  0  0  0  0  0  0  0  0  0
    3.0500   -2.3662    0.6638 O   0  0  0  0  0  0  0  0  0  0  0  0
    4.3509   -2.3445    0.0650 C   0  0  0  0  0  0  0  0  0  0  0  0
    5.2878   -1.6825    1.0813 C   0  0  0  0  0  0  0  0  0  0  0  0
    4.8890   -0.7062    1.3425 H   0  0  0  0  0  0  0  0  0  0  0  0
    5.3000   -2.2895    1.9831 H   0  0  0  0  0  0  0  0  0  0  0  0
    6.2995   -1.5969    0.6966 H   0  0  0  0  0  0  0  0  0  0  0  0
    4.8176   -3.7757   -0.1993 C   0  0  0  0  0  0  0  0  0  0  0  0
    4.9260   -4.2887    0.7527 H   0  0  0  0  0  0  0  0  0  0  0  0
    5.7779   -3.7676   -0.7073 H   0  0  0  0  0  0  0  0  0  0  0  0
    4.0962   -4.3237   -0.7961 H   0  0  0  0  0  0  0  0  0  0  0  0
    4.1232   -1.4705   -1.2167 C   0  0  0  0  0  0  0  0  0  0  0  0
    2.9126   -0.7628   -0.9090 O   0  0  0  0  0  0  0  0  0  0  0  0
    5.2367   -0.4683   -1.5139 C   0  0  0  0  0  0  0  0  0  0  0  0
    6.1840   -0.9854   -1.6407 H   0  0  0  0  0  0  0  0  0  0  0  0
    5.0026    0.0668   -2.4308 H   0  0  0  0  0  0  0  0  0  0  0  0
    5.3177    0.2554   -0.7105 H   0  0  0  0  0  0  0  0  0  0  0  0
    3.8502   -2.3057   -2.4755 C   0  0  0  0  0  0  0  0  0  0  0  0
    3.0370   -3.0029   -2.2928 H   0  0  0  0  0  0  0  0  0  0  0  0
    3.5441   -1.6368   -3.2767 H   0  0  0  0  0  0  0  0  0  0  0  0
    4.7388   -2.8466   -2.7865 H   0  0  0  0  0  0  0  0  0  0  0  0
   -3.2044   -3.2064   -3.2972 H   0  0  0  0  0  0  0  0  0  0  0  0
   -5.0173    1.8286    1.1017 H   0  0  0  0  0  0  0  0  0  0  0  0
    0.2359   -1.6814    2.9603 C   0  0  0  0  0  0  0  0  0  0  0  0
   -0.9029   -2.2652    3.4415 N   0  0  0  0  0  0  0  0  0  0  0  0
    1.0253   -1.3760    4.0509 C   0  0  0  0  0  0  0  0  0  0  0  0
   -1.9918   -2.8084    2.6800 C   0  0  0  0  0  0  0  0  0  0  0  0
   -0.8687   -2.2725    4.8037 C   0  0  0  0  0  0  0  0  0  0  0  0
    0.3163   -1.7244    5.2149 C   0  0  0  0  0  0  0  0  0  0  0  0
    2.0088   -0.9529    4.0005 H   0  0  0  0  0  0  0  0  0  0  0  0
   -2.3912   -3.6863    3.1896 H   0  0  0  0  0  0  0  0  0  0  0  0
   -1.6378   -3.0993    1.6926 H   0  0  0  0  0  0  0  0  0  0  0  0
   -2.7989   -2.0786    2.5626 H   0  0  0  0  0  0  0  0  0  0  0  0
   -1.6854   -2.6686    5.3766 H   0  0  0  0  0  0  0  0  0  0  0  0
    0.6414   -1.5978    6.2307 H   0  0  0  0  0  0  0  0  0  0  0  0
  1  2  4  0  0  0  0
  2  3  4  0  0  0  0
  3  4  4  0  0  0  0
  4  5  4  0  0  0  0
  1  6  4  0  0  0  0
  5  6  4  0  0  0  0
  6  7  1  0  0  0  0
  5  8  1  0  0  0  0
  3  9  1  0  0  0  0
  2 10  1  0  0  0  0
 10 11  4  0  0  0  0
 11 12  4  0  0  0  0
 12 13  4  0  0  0  0
 13 14  4  0  0  0  0
 10 15  4  0  0  0  0
 14 15  4  0  0  0  0
 15 16  1  0  0  0  0
 13 17  1  0  0  0  0
 12 18  1  0  0  0  0
  1 19  1  0  0  0  0
 11 19  1  0  0  0  0
 19 20  1  0  0  0  0
 19 21  1  0  0  0  0
 21 22  1  0  0  0  0
 22 23  1  0  0  0  0
 23 24  1  0  0  0  0
 24 25  1  0  0  0  0
 24 26  1  0  0  0  0
 24 27  1  0  0  0  0
 23 28  1  0  0  0  0
 28 29  1  0  0  0  0
 28 30  1  0  0  0  0
 28 31  1  0  0  0  0
 23 32  1  0  0  0  0
 21 33  1  0  0  0  0
 32 33  1  0  0  0  0
 32 34  1  0  0  0  0
 34 35  1  0  0  0  0
 34 36  1  0  0  0  0
 34 37  1  0  0  0  0
 32 38  1  0  0  0  0
 38 39  1  0  0  0  0
 38 40  1  0  0  0  0
 38 41  1  0  0  0  0
 19 42  1  0  0  0  0
 42 43  1  0  0  0  0
 43 44  1  0  0  0  0
 44 45  1  0  0  0  0
 45 46  1  0  0  0  0
 45 47  1  0  0  0  0
 45 48  1  0  0  0  0
 44 49  1  0  0  0  0
 49 50  1  0  0  0  0
 49 51  1  0  0  0  0
 49 52  1  0  0  0  0
 44 53  1  0  0  0  0
 42 54  1  0  0  0  0
 53 54  1  0  0  0  0
 53 55  1  0  0  0  0
 55 56  1  0  0  0  0
 55 57  1  0  0  0  0
 55 58  1  0  0  0  0
 53 59  1  0  0  0  0
 59 60  1  0  0  0  0
 59 61  1  0  0  0  0
 59 62  1  0  0  0  0
 19 63  1  0  0  0  0
 63 64  1  0  0  0  0
 64 65  1  0  0  0  0
 65 66  1  0  0  0  0
 66 67  1  0  0  0  0
 66 68  1  0  0  0  0
 66 69  1  0  0  0  0
 65 70  1  0  0  0  0
 70 71  1  0  0  0  0
 70 72  1  0  0  0  0
 70 73  1  0  0  0  0
 65 74  1  0  0  0  0
 63 75  1  0  0  0  0
 74 75  1  0  0  0  0
 74 76  1  0  0  0  0
 76 77  1  0  0  0  0
 76 78  1  0  0  0  0
 76 79  1  0  0  0  0
 74 80  1  0  0  0  0
 80 81  1  0  0  0  0
 80 82  1  0  0  0  0
 80 83  1  0  0  0  0
  4 84  1  0  0  0  0
 14 85  1  0  0  0  0
 19 86  1  0  0  0  0
 20 86  1  0  0  0  0
 86 87  4  0  0  0  0
 86 88  4  0  0  0  0
 87 89  1  0  0  0  0
 87 90  4  0  0  0  0
 88 91  4  0  0  0  0
 90 91  2  0  0  0  0
 88 92  1  0  0  0  0
 89 93  1  0  0  0  0
 89 94  1  0  0  0  0
 89 95  1  0  0  0  0
 90 96  1  0  0  0  0
 91 97  1  0  0  0  0
M  END
