
  xtb     01142213573D
 xtb: 6.4.1 (1a32961)
105113  0     0  0            999 V2000
   -0.9383   -2.0295   -0.3366 N   0  0  0  0  0  0  0  0  0  0  0  0
   -2.1990   -1.5718   -0.4528 C   0  0  0  0  0  0  0  0  0  0  0  0
   -3.1019   -2.1697   -1.3411 C   0  0  0  0  0  0  0  0  0  0  0  0
   -2.7000   -3.2373   -2.1136 C   0  0  0  0  0  0  0  0  0  0  0  0
   -1.3917   -3.6968   -1.9854 C   0  0  0  0  0  0  0  0  0  0  0  0
   -0.5604   -3.0596   -1.0884 C   0  0  0  0  0  0  0  0  0  0  0  0
    0.4621   -3.3827   -0.9525 H   0  0  0  0  0  0  0  0  0  0  0  0
   -1.0334   -4.5297   -2.5680 H   0  0  0  0  0  0  0  0  0  0  0  0
   -4.1106   -1.8016   -1.4299 H   0  0  0  0  0  0  0  0  0  0  0  0
   -2.5527   -0.4346    0.3882 C   0  0  0  0  0  0  0  0  0  0  0  0
   -1.5768    0.0558    1.1812 N   0  0  0  0  0  0  0  0  0  0  0  0
   -1.8562    1.0881    1.9741 C   0  0  0  0  0  0  0  0  0  0  0  0
   -3.0956    1.6922    2.0317 C   0  0  0  0  0  0  0  0  0  0  0  0
   -4.1101    1.2054    1.2120 C   0  0  0  0  0  0  0  0  0  0  0  0
   -3.8310    0.1378    0.3865 C   0  0  0  0  0  0  0  0  0  0  0  0
   -4.6040   -0.2511   -0.2552 H   0  0  0  0  0  0  0  0  0  0  0  0
   -3.2670    2.5205    2.6999 H   0  0  0  0  0  0  0  0  0  0  0  0
   -1.0327    1.4416    2.5754 H   0  0  0  0  0  0  0  0  0  0  0  0
    0.4215   -0.8165    0.9133 Ir  0  0  0  0  0  0  0  0  0  0  0  0
    0.8726   -2.2303    1.5405 H   0  0  0  0  0  0  0  0  0  0  0  0
    0.3999    0.5878   -0.6338 B   0  0  0  0  0  0  0  0  0  0  0  0
   -0.3871    0.3501   -1.7481 O   0  0  0  0  0  0  0  0  0  0  0  0
   -0.4814    1.5383   -2.5411 C   0  0  0  0  0  0  0  0  0  0  0  0
   -0.4395    1.1753   -4.0232 C   0  0  0  0  0  0  0  0  0  0  0  0
    0.4144    0.5425   -4.2416 H   0  0  0  0  0  0  0  0  0  0  0  0
   -0.3898    2.0776   -4.6271 H   0  0  0  0  0  0  0  0  0  0  0  0
   -1.3429    0.6282   -4.2827 H   0  0  0  0  0  0  0  0  0  0  0  0
   -1.8354    2.1860   -2.2163 C   0  0  0  0  0  0  0  0  0  0  0  0
   -2.0015    3.0739   -2.8190 H   0  0  0  0  0  0  0  0  0  0  0  0
   -2.6245    1.4650   -2.4219 H   0  0  0  0  0  0  0  0  0  0  0  0
   -1.8822    2.4439   -1.1601 H   0  0  0  0  0  0  0  0  0  0  0  0
    0.7305    2.3839   -2.0298 C   0  0  0  0  0  0  0  0  0  0  0  0
    0.9545    1.8423   -0.7206 O   0  0  0  0  0  0  0  0  0  0  0  0
    2.0072    2.1273   -2.8395 C   0  0  0  0  0  0  0  0  0  0  0  0
    2.2195    1.0609   -2.8421 H   0  0  0  0  0  0  0  0  0  0  0  0
    1.9146    2.5017   -3.8549 H   0  0  0  0  0  0  0  0  0  0  0  0
    2.8384    2.6294   -2.3498 H   0  0  0  0  0  0  0  0  0  0  0  0
    0.4769    3.8870   -1.9350 C   0  0  0  0  0  0  0  0  0  0  0  0
   -0.2985    4.1098   -1.2085 H   0  0  0  0  0  0  0  0  0  0  0  0
    1.3910    4.3833   -1.6178 H   0  0  0  0  0  0  0  0  0  0  0  0
    0.1866    4.2777   -2.9070 H   0  0  0  0  0  0  0  0  0  0  0  0
    1.6049    0.6549    1.8213 B   0  0  0  0  0  0  0  0  0  0  0  0
    2.9751    0.7415    1.8306 O   0  0  0  0  0  0  0  0  0  0  0  0
    3.3915    2.0467    2.2540 C   0  0  0  0  0  0  0  0  0  0  0  0
    4.6076    1.9281    3.1723 C   0  0  0  0  0  0  0  0  0  0  0  0
    4.4130    1.2502    3.9968 H   0  0  0  0  0  0  0  0  0  0  0  0
    5.4459    1.5339    2.6035 H   0  0  0  0  0  0  0  0  0  0  0  0
    4.8788    2.9057    3.5614 H   0  0  0  0  0  0  0  0  0  0  0  0
    3.7837    2.8104    0.9832 C   0  0  0  0  0  0  0  0  0  0  0  0
    4.0859    3.8294    1.2058 H   0  0  0  0  0  0  0  0  0  0  0  0
    4.6149    2.2923    0.5101 H   0  0  0  0  0  0  0  0  0  0  0  0
    2.9455    2.7995    0.2916 H   0  0  0  0  0  0  0  0  0  0  0  0
    2.1013    2.6183    2.9385 C   0  0  0  0  0  0  0  0  0  0  0  0
    1.0655    1.7577    2.4450 O   0  0  0  0  0  0  0  0  0  0  0  0
    1.7634    4.0612    2.5652 C   0  0  0  0  0  0  0  0  0  0  0  0
    1.5574    4.1378    1.5027 H   0  0  0  0  0  0  0  0  0  0  0  0
    0.8742    4.3715    3.1086 H   0  0  0  0  0  0  0  0  0  0  0  0
    2.5841    4.7215    2.8312 H   0  0  0  0  0  0  0  0  0  0  0  0
    2.1158    2.4804    4.4649 C   0  0  0  0  0  0  0  0  0  0  0  0
    2.3127    1.4497    4.7471 H   0  0  0  0  0  0  0  0  0  0  0  0
    2.8647    3.1289    4.9087 H   0  0  0  0  0  0  0  0  0  0  0  0
    1.1369    2.7581    4.8495 H   0  0  0  0  0  0  0  0  0  0  0  0
    2.2782   -1.3309    0.1741 B   0  0  0  0  0  0  0  0  0  0  0  0
    3.1501   -2.2348    0.7422 O   0  0  0  0  0  0  0  0  0  0  0  0
    4.3927   -2.2524    0.0276 C   0  0  0  0  0  0  0  0  0  0  0  0
    5.3944   -1.4502    0.8645 C   0  0  0  0  0  0  0  0  0  0  0  0
    4.9801   -0.4656    1.0596 H   0  0  0  0  0  0  0  0  0  0  0  0
    5.5258   -1.9512    1.8203 H   0  0  0  0  0  0  0  0  0  0  0  0
    6.3575   -1.3730    0.3695 H   0  0  0  0  0  0  0  0  0  0  0  0
    4.8824   -3.6954   -0.0997 C   0  0  0  0  0  0  0  0  0  0  0  0
    5.0845   -4.0841    0.8949 H   0  0  0  0  0  0  0  0  0  0  0  0
    5.7972   -3.7302   -0.6846 H   0  0  0  0  0  0  0  0  0  0  0  0
    4.1326   -4.3296   -0.5608 H   0  0  0  0  0  0  0  0  0  0  0  0
    4.0242   -1.5539   -1.3297 C   0  0  0  0  0  0  0  0  0  0  0  0
    2.7883   -0.8896   -1.0254 O   0  0  0  0  0  0  0  0  0  0  0  0
    5.0389   -0.5210   -1.8171 C   0  0  0  0  0  0  0  0  0  0  0  0
    6.0089   -0.9858   -1.9702 H   0  0  0  0  0  0  0  0  0  0  0  0
    4.6955   -0.1048   -2.7608 H   0  0  0  0  0  0  0  0  0  0  0  0
    5.1270    0.2898   -1.1026 H   0  0  0  0  0  0  0  0  0  0  0  0
    3.7369   -2.5459   -2.4652 C   0  0  0  0  0  0  0  0  0  0  0  0
    2.9823   -3.2642   -2.1565 H   0  0  0  0  0  0  0  0  0  0  0  0
    3.3463   -1.9954   -3.3177 H   0  0  0  0  0  0  0  0  0  0  0  0
    4.6404   -3.0679   -2.7652 H   0  0  0  0  0  0  0  0  0  0  0  0
   -3.3853   -3.7049   -2.8041 H   0  0  0  0  0  0  0  0  0  0  0  0
   -5.0930    1.6515    1.2209 H   0  0  0  0  0  0  0  0  0  0  0  0
    0.2359   -1.6814    2.9603 C   0  0  0  0  0  0  0  0  0  0  0  0
   -0.9783   -2.0269    3.4565 C   0  0  0  0  0  0  0  0  0  0  0  0
    1.2231   -1.6621    3.9849 C   0  0  0  0  0  0  0  0  0  0  0  0
   -0.9609   -2.2810    5.1730 S   0  0  0  0  0  0  0  0  0  0  0  0
   -1.9148   -2.1661    2.9531 H   0  0  0  0  0  0  0  0  0  0  0  0
    0.7454   -1.9590    5.2245 C   0  0  0  0  0  0  0  0  0  0  0  0
    2.2574   -1.4418    3.7885 H   0  0  0  0  0  0  0  0  0  0  0  0
    1.5562   -2.0935    6.4623 C   0  0  0  0  0  0  0  0  0  0  0  0
    2.4873   -0.5592    6.8403 S   0  0  0  0  0  0  0  0  0  0  0  0
    0.6668   -2.7084    7.9287 S   0  0  0  0  0  0  0  0  0  0  0  0
    2.3452   -2.8368    6.3094 H   0  0  0  0  0  0  0  0  0  0  0  0
    1.0897    0.5025    7.3374 C   0  0  0  0  0  0  0  0  0  0  0  0
   -0.3815   -1.2732    8.3583 C   0  0  0  0  0  0  0  0  0  0  0  0
    0.4187   -0.0052    8.6040 C   0  0  0  0  0  0  0  0  0  0  0  0
    0.3921    0.5430    6.4992 H   0  0  0  0  0  0  0  0  0  0  0  0
    1.5306    1.4853    7.4921 H   0  0  0  0  0  0  0  0  0  0  0  0
   -1.1089   -1.1355    7.5584 H   0  0  0  0  0  0  0  0  0  0  0  0
   -0.8970   -1.5924    9.2629 H   0  0  0  0  0  0  0  0  0  0  0  0
   -0.2645    0.7645    8.9715 H   0  0  0  0  0  0  0  0  0  0  0  0
    1.1775   -0.1882    9.3678 H   0  0  0  0  0  0  0  0  0  0  0  0
  1  2  4  0  0  0  0
  2  3  4  0  0  0  0
  3  4  4  0  0  0  0
  4  5  4  0  0  0  0
  1  6  4  0  0  0  0
  5  6  4  0  0  0  0
  6  7  1  0  0  0  0
  5  8  1  0  0  0  0
  3  9  1  0  0  0  0
  2 10  1  0  0  0  0
 10 11  4  0  0  0  0
 11 12  4  0  0  0  0
 12 13  4  0  0  0  0
 13 14  4  0  0  0  0
 10 15  4  0  0  0  0
 14 15  4  0  0  0  0
 15 16  1  0  0  0  0
 13 17  1  0  0  0  0
 12 18  1  0  0  0  0
  1 19  1  0  0  0  0
 11 19  1  0  0  0  0
 19 20  1  0  0  0  0
 19 21  1  0  0  0  0
 21 22  1  0  0  0  0
 22 23  1  0  0  0  0
 23 24  1  0  0  0  0
 24 25  1  0  0  0  0
 24 26  1  0  0  0  0
 24 27  1  0  0  0  0
 23 28  1  0  0  0  0
 28 29  1  0  0  0  0
 28 30  1  0  0  0  0
 28 31  1  0  0  0  0
 23 32  1  0  0  0  0
 21 33  1  0  0  0  0
 32 33  1  0  0  0  0
 32 34  1  0  0  0  0
 34 35  1  0  0  0  0
 34 36  1  0  0  0  0
 34 37  1  0  0  0  0
 32 38  1  0  0  0  0
 38 39  1  0  0  0  0
 38 40  1  0  0  0  0
 38 41  1  0  0  0  0
 19 42  1  0  0  0  0
 42 43  1  0  0  0  0
 43 44  1  0  0  0  0
 44 45  1  0  0  0  0
 45 46  1  0  0  0  0
 45 47  1  0  0  0  0
 45 48  1  0  0  0  0
 44 49  1  0  0  0  0
 49 50  1  0  0  0  0
 49 51  1  0  0  0  0
 49 52  1  0  0  0  0
 44 53  1  0  0  0  0
 42 54  1  0  0  0  0
 53 54  1  0  0  0  0
 53 55  1  0  0  0  0
 55 56  1  0  0  0  0
 55 57  1  0  0  0  0
 55 58  1  0  0  0  0
 53 59  1  0  0  0  0
 59 60  1  0  0  0  0
 59 61  1  0  0  0  0
 59 62  1  0  0  0  0
 19 63  1  0  0  0  0
 63 64  1  0  0  0  0
 64 65  1  0  0  0  0
 65 66  1  0  0  0  0
 66 67  1  0  0  0  0
 66 68  1  0  0  0  0
 66 69  1  0  0  0  0
 65 70  1  0  0  0  0
 70 71  1  0  0  0  0
 70 72  1  0  0  0  0
 70 73  1  0  0  0  0
 65 74  1  0  0  0  0
 63 75  1  0  0  0  0
 74 75  1  0  0  0  0
 74 76  1  0  0  0  0
 76 77  1  0  0  0  0
 76 78  1  0  0  0  0
 76 79  1  0  0  0  0
 74 80  1  0  0  0  0
 80 81  1  0  0  0  0
 80 82  1  0  0  0  0
 80 83  1  0  0  0  0
  4 84  1  0  0  0  0
 14 85  1  0  0  0  0
 19 86  1  0  0  0  0
 20 86  1  0  0  0  0
 86 87  2  0  0  0  0
 86 88  4  0  0  0  0
 87 89  1  0  0  0  0
 87 90  1  0  0  0  0
 88 91  2  0  0  0  0
 89 91  1  0  0  0  0
 88 92  1  0  0  0  0
 91 93  1  0  0  0  0
 93 94  1  0  0  0  0
 93 95  1  0  0  0  0
 93 96  1  0  0  0  0
 94 97  1  0  0  0  0
 95 98  1  0  0  0  0
 97 99  1  0  0  0  0
 98 99  1  0  0  0  0
 97100  1  0  0  0  0
 97101  1  0  0  0  0
 98102  1  0  0  0  0
 98103  1  0  0  0  0
 99104  1  0  0  0  0
 99105  1  0  0  0  0
M  END
