
  xtb     01142215033D
 xtb: 6.4.1 (1a32961)
 14 14  0     0  0            999 V2000
    0.2706   -1.1519   -0.0010 N   0  0  0  0  0  0  0  0  0  0  0  0
    1.5914   -1.1835    0.0011 C   0  0  0  0  0  0  0  0  0  0  0  0
    2.3795   -0.0405    0.0015 C   0  0  0  0  0  0  0  0  0  0  0  0
    1.7247    1.1856   -0.0002 C   0  0  0  0  0  0  0  0  0  0  0  0
    2.4896    2.4838   -0.0014 C   0  0  0  0  0  0  0  0  0  0  0  0
    3.8186    2.3177    0.0086 F   0  0  0  0  0  0  0  0  0  0  0  0
    2.2092    3.2364   -1.0820 F   0  0  0  0  0  0  0  0  0  0  0  0
    2.1944    3.2481    1.0668 F   0  0  0  0  0  0  0  0  0  0  0  0
    0.3374    1.2376   -0.0022 C   0  0  0  0  0  0  0  0  0  0  0  0
   -0.3328    0.0174   -0.0025 C   0  0  0  0  0  0  0  0  0  0  0  0
   -2.0511   -0.0097   -0.0054 Cl  0  0  0  0  0  0  0  0  0  0  0  0
    2.0299   -2.1703    0.0022 H   0  0  0  0  0  0  0  0  0  0  0  0
    3.4549   -0.1008    0.0031 H   0  0  0  0  0  0  0  0  0  0  0  0
   -0.1967    2.1730   -0.0035 H   0  0  0  0  0  0  0  0  0  0  0  0
  1  2  4  0  0  0  0
  2  3  4  0  0  0  0
  3  4  4  0  0  0  0
  4  5  1  0  0  0  0
  5  6  1  0  0  0  0
  5  7  1  0  0  0  0
  5  8  1  0  0  0  0
  4  9  4  0  0  0  0
  1 10  4  0  0  0  0
  9 10  4  0  0  0  0
 10 11  1  0  0  0  0
  2 12  1  0  0  0  0
  3 13  1  0  0  0  0
  9 14  1  0  0  0  0
M  END
