   14

C          0.28103       -1.20549        0.00107
C         -1.11496       -1.20618        0.00243
C         -1.81282        0.00035        0.00212
C         -1.11588        1.20683        0.00324
C          0.28010        1.20865        0.00199
C          0.99045        0.00225       -0.00034
C          2.49021       -0.00827       -0.01285
H          0.81404       -2.15360        0.00015
H         -1.65736       -2.14765        0.00207
H         -2.89949        0.00005        0.00081
H          0.80870        2.15888        0.00135
H          2.89843        1.00767        0.00306
H          2.85575       -0.50297       -0.91794
H          2.87207       -0.53628        0.86694
