
  xtb     01142215083D
 xtb: 6.4.1 (1a32961)
 17 17  0     0  0            999 V2000
   -0.0292    1.0036    0.0108 O   0  0  0  0  0  0  0  0  0  0  0  0
    0.6847   -0.1312    0.0003 C   0  0  0  0  0  0  0  0  0  0  0  0
    2.1669   -0.0379   -0.0013 C   0  0  0  0  0  0  0  0  0  0  0  0
   -0.1556   -1.2188   -0.0059 C   0  0  0  0  0  0  0  0  0  0  0  0
   -1.4630   -0.7087    0.0007 C   0  0  0  0  0  0  0  0  0  0  0  0
   -1.3485    0.6672    0.0112 C   0  0  0  0  0  0  0  0  0  0  0  0
   -2.3818    1.6861    0.0230 C   0  0  0  0  0  0  0  0  0  0  0  0
   -3.5663    1.3819    0.0227 O   0  0  0  0  0  0  0  0  0  0  0  0
   -1.9185    3.1195    0.0341 C   0  0  0  0  0  0  0  0  0  0  0  0
    2.4645    1.0069    0.0086 H   0  0  0  0  0  0  0  0  0  0  0  0
    2.5755   -0.5200   -0.8875 H   0  0  0  0  0  0  0  0  0  0  0  0
    2.5777   -0.5374    0.8742 H   0  0  0  0  0  0  0  0  0  0  0  0
    0.1347   -2.2490   -0.0146 H   0  0  0  0  0  0  0  0  0  0  0  0
   -2.3835   -1.2555   -0.0016 H   0  0  0  0  0  0  0  0  0  0  0  0
   -0.8366    3.1900    0.0351 H   0  0  0  0  0  0  0  0  0  0  0  0
   -2.3262    3.6133    0.9142 H   0  0  0  0  0  0  0  0  0  0  0  0
   -2.3253    3.6264   -0.8389 H   0  0  0  0  0  0  0  0  0  0  0  0
  1  2  1  0  0  0  0
  2  3  1  0  0  0  0
  2  4  2  0  0  0  0
  4  5  4  0  0  0  0
  1  6  1  0  0  0  0
  5  6  4  0  0  0  0
  6  7  1  0  0  0  0
  7  8  2  0  0  0  0
  7  9  1  0  0  0  0
  3 10  1  0  0  0  0
  3 11  1  0  0  0  0
  3 12  1  0  0  0  0
  4 13  1  0  0  0  0
  5 14  1  0  0  0  0
  9 15  1  0  0  0  0
  9 16  1  0  0  0  0
  9 17  1  0  0  0  0
M  END
