   26

C          0.56429        0.62646       -1.25243
C          0.92330        1.19665       -0.03769
C          0.55181        0.54251        1.12362
N         -0.14198       -0.61760        1.14530
C         -0.49683       -1.15644       -0.04677
C         -1.27911       -2.44532       -0.00636
C         -0.35675       -3.66572       -0.00166
C         -1.12751       -4.95986        0.11480
C         -1.53786       -5.65829       -1.02876
C         -2.25612       -6.85035       -0.91096
C         -2.57508       -7.35401        0.34919
C         -2.17760       -6.66474        1.49290
C         -1.46043       -5.47203        1.37700
C         -0.15417       -0.56729       -1.26186
H          0.83795        1.10934       -2.18617
H          1.47765        2.12764        0.00377
H          0.80723        0.94644        2.09885
H         -1.97097       -2.48482       -0.85759
H         -1.90761       -2.44214        0.89346
H          0.36064       -3.60083        0.82751
H          0.25281       -3.68691       -0.91457
H         -1.29679       -5.28188       -2.02018
H         -2.56645       -7.38915       -1.80278
H         -2.42491       -7.05497        2.47640
H         -1.15750       -4.94436        2.27914
H         -0.44424       -1.02124       -2.20345
