   19
Created with kallisto
C     -2.0741    0.6998   -0.0024
C     -0.8735    1.4175   -0.0005
C     -2.0860   -0.7024   -0.0028
C      0.2834    0.6498    0.0002
H     -0.8428    2.4993   -0.0001
C     -0.8929   -1.4579   -0.0016
H     -3.0453   -1.2193   -0.0042
C      0.3140   -0.7360   -0.0000
O      1.5742    1.0970    0.0018
C     -0.9495   -2.9553   -0.0017
N      1.6188   -1.1700    0.0012
C      2.3180   -0.0533    0.0020
H      0.0553   -3.3909   -0.0026
H     -1.4729   -3.3134   -0.8935
H     -1.4715   -3.3135    0.8908
C      3.7847    0.1080    0.0026
H      4.2765   -0.8697    0.0024
H      4.1117    0.6543    0.8921
H      4.1122    0.6550   -0.8861
