
  xtb     01142215283D
 xtb: 6.4.1 (1a32961)
 96103  0     0  0            999 V2000
   -0.9714   -2.0090   -0.3428 N   0  0  0  0  0  0  0  0  0  0  0  0
   -2.1987   -1.4891   -0.5249 C   0  0  0  0  0  0  0  0  0  0  0  0
   -3.0913   -2.0574   -1.4424 C   0  0  0  0  0  0  0  0  0  0  0  0
   -2.7092   -3.1573   -2.1794 C   0  0  0  0  0  0  0  0  0  0  0  0
   -1.4329   -3.6784   -1.9864 C   0  0  0  0  0  0  0  0  0  0  0  0
   -0.6120   -3.0695   -1.0598 C   0  0  0  0  0  0  0  0  0  0  0  0
    0.3841   -3.4437   -0.8699 H   0  0  0  0  0  0  0  0  0  0  0  0
   -1.0910   -4.5371   -2.5408 H   0  0  0  0  0  0  0  0  0  0  0  0
   -4.0763   -1.6435   -1.5796 H   0  0  0  0  0  0  0  0  0  0  0  0
   -2.5272   -0.3111    0.2710 C   0  0  0  0  0  0  0  0  0  0  0  0
   -1.5742    0.1284    1.1192 N   0  0  0  0  0  0  0  0  0  0  0  0
   -1.8294    1.1985    1.8686 C   0  0  0  0  0  0  0  0  0  0  0  0
   -3.0193    1.8958    1.8201 C   0  0  0  0  0  0  0  0  0  0  0  0
   -4.0059    1.4657    0.9376 C   0  0  0  0  0  0  0  0  0  0  0  0
   -3.7532    0.3557    0.1600 C   0  0  0  0  0  0  0  0  0  0  0  0
   -4.5052    0.0107   -0.5297 H   0  0  0  0  0  0  0  0  0  0  0  0
   -3.1751    2.7515    2.4567 H   0  0  0  0  0  0  0  0  0  0  0  0
   -1.0304    1.4980    2.5296 H   0  0  0  0  0  0  0  0  0  0  0  0
    0.4215   -0.8165    0.9133 Ir  0  0  0  0  0  0  0  0  0  0  0  0
    0.8726   -2.2303    1.5405 H   0  0  0  0  0  0  0  0  0  0  0  0
    0.3940    0.5855   -0.6256 B   0  0  0  0  0  0  0  0  0  0  0  0
   -0.1333    0.2509   -1.8564 O   0  0  0  0  0  0  0  0  0  0  0  0
   -0.2281    1.4173   -2.6834 C   0  0  0  0  0  0  0  0  0  0  0  0
    0.1834    1.0664   -4.1108 C   0  0  0  0  0  0  0  0  0  0  0  0
    1.1451    0.5644   -4.1179 H   0  0  0  0  0  0  0  0  0  0  0  0
    0.2344    1.9663   -4.7182 H   0  0  0  0  0  0  0  0  0  0  0  0
   -0.5548    0.3934   -4.5401 H   0  0  0  0  0  0  0  0  0  0  0  0
   -1.6983    1.8594   -2.6733 C   0  0  0  0  0  0  0  0  0  0  0  0
   -1.8542    2.7141   -3.3248 H   0  0  0  0  0  0  0  0  0  0  0  0
   -2.3131    1.0314   -3.0206 H   0  0  0  0  0  0  0  0  0  0  0  0
   -2.0087    2.1086   -1.6605 H   0  0  0  0  0  0  0  0  0  0  0  0
    0.7146    2.4290   -1.9526 C   0  0  0  0  0  0  0  0  0  0  0  0
    0.7375    1.9182   -0.6116 O   0  0  0  0  0  0  0  0  0  0  0  0
    2.1554    2.3633   -2.4730 C   0  0  0  0  0  0  0  0  0  0  0  0
    2.5158    1.3407   -2.3896 H   0  0  0  0  0  0  0  0  0  0  0  0
    2.2233    2.7131   -3.4989 H   0  0  0  0  0  0  0  0  0  0  0  0
    2.7835    2.9886   -1.8433 H   0  0  0  0  0  0  0  0  0  0  0  0
    0.2346    3.8786   -1.9531 C   0  0  0  0  0  0  0  0  0  0  0  0
   -0.7117    3.9828   -1.4313 H   0  0  0  0  0  0  0  0  0  0  0  0
    0.9709    4.4976   -1.4462 H   0  0  0  0  0  0  0  0  0  0  0  0
    0.1254    4.2321   -2.9751 H   0  0  0  0  0  0  0  0  0  0  0  0
    1.6084    0.6491    1.8288 B   0  0  0  0  0  0  0  0  0  0  0  0
    2.9148    0.9917    1.6020 O   0  0  0  0  0  0  0  0  0  0  0  0
    3.2567    2.1969    2.3027 C   0  0  0  0  0  0  0  0  0  0  0  0
    4.6024    2.0056    3.0045 C   0  0  0  0  0  0  0  0  0  0  0  0
    4.5912    1.1226    3.6353 H   0  0  0  0  0  0  0  0  0  0  0  0
    5.3773    1.8737    2.2534 H   0  0  0  0  0  0  0  0  0  0  0  0
    4.8423    2.8797    3.6030 H   0  0  0  0  0  0  0  0  0  0  0  0
    3.3930    3.2936    1.2405 C   0  0  0  0  0  0  0  0  0  0  0  0
    3.6123    4.2577    1.6890 H   0  0  0  0  0  0  0  0  0  0  0  0
    4.2044    3.0228    0.5686 H   0  0  0  0  0  0  0  0  0  0  0  0
    2.4776    3.3428    0.6575 H   0  0  0  0  0  0  0  0  0  0  0  0
    2.0366    2.4111    3.2723 C   0  0  0  0  0  0  0  0  0  0  0  0
    1.0646    1.4744    2.7858 O   0  0  0  0  0  0  0  0  0  0  0  0
    1.4222    3.8114    3.2262 C   0  0  0  0  0  0  0  0  0  0  0  0
    1.0511    4.0358    2.2315 H   0  0  0  0  0  0  0  0  0  0  0  0
    0.5852    3.8498    3.9193 H   0  0  0  0  0  0  0  0  0  0  0  0
    2.1546    4.5568    3.5225 H   0  0  0  0  0  0  0  0  0  0  0  0
    2.3300    2.0506    4.7336 C   0  0  0  0  0  0  0  0  0  0  0  0
    2.7120    1.0374    4.8091 H   0  0  0  0  0  0  0  0  0  0  0  0
    3.0423    2.7454    5.1674 H   0  0  0  0  0  0  0  0  0  0  0  0
    1.4000    2.1005    5.2952 H   0  0  0  0  0  0  0  0  0  0  0  0
    2.2782   -1.3309    0.1741 B   0  0  0  0  0  0  0  0  0  0  0  0
    3.1182   -2.2799    0.7167 O   0  0  0  0  0  0  0  0  0  0  0  0
    4.3948   -2.2466    0.0648 C   0  0  0  0  0  0  0  0  0  0  0  0
    5.3382   -1.4710    0.9904 C   0  0  0  0  0  0  0  0  0  0  0  0
    4.9208   -0.4853    1.1770 H   0  0  0  0  0  0  0  0  0  0  0  0
    5.3968   -1.9947    1.9418 H   0  0  0  0  0  0  0  0  0  0  0  0
    6.3346   -1.3907    0.5675 H   0  0  0  0  0  0  0  0  0  0  0  0
    4.9131   -3.6734   -0.1100 C   0  0  0  0  0  0  0  0  0  0  0  0
    5.0846   -4.1051    0.8726 H   0  0  0  0  0  0  0  0  0  0  0  0
    5.8496   -3.6654   -0.6603 H   0  0  0  0  0  0  0  0  0  0  0  0
    4.1920   -4.2954   -0.6296 H   0  0  0  0  0  0  0  0  0  0  0  0
    4.0796   -1.4819   -1.2681 C   0  0  0  0  0  0  0  0  0  0  0  0
    2.8392   -0.8198   -0.9720 O   0  0  0  0  0  0  0  0  0  0  0  0
    5.1217   -0.4393   -1.6679 C   0  0  0  0  0  0  0  0  0  0  0  0
    6.0976   -0.9039   -1.7769 H   0  0  0  0  0  0  0  0  0  0  0  0
    4.8362    0.0052   -2.6180 H   0  0  0  0  0  0  0  0  0  0  0  0
    5.1696    0.3493   -0.9249 H   0  0  0  0  0  0  0  0  0  0  0  0
    3.8204   -2.4189   -2.4553 C   0  0  0  0  0  0  0  0  0  0  0  0
    3.0553   -3.1467   -2.1993 H   0  0  0  0  0  0  0  0  0  0  0  0
    3.4536   -1.8280   -3.2910 H   0  0  0  0  0  0  0  0  0  0  0  0
    4.7305   -2.9296   -2.7545 H   0  0  0  0  0  0  0  0  0  0  0  0
   -3.3871   -3.6027   -2.8916 H   0  0  0  0  0  0  0  0  0  0  0  0
   -4.9483    1.9866    0.8620 H   0  0  0  0  0  0  0  0  0  0  0  0
    0.2359   -1.6814    2.9603 C   0  0  0  0  0  0  0  0  0  0  0  0
   -1.0839   -1.9868    3.2988 C   0  0  0  0  0  0  0  0  0  0  0  0
    1.1478   -1.6296    4.0148 C   0  0  0  0  0  0  0  0  0  0  0  0
   -1.4572   -2.1094    4.6221 C   0  0  0  0  0  0  0  0  0  0  0  0
   -1.8382   -2.1302    2.5405 H   0  0  0  0  0  0  0  0  0  0  0  0
    0.7696   -1.7624    5.3421 C   0  0  0  0  0  0  0  0  0  0  0  0
    2.8232   -1.4147    3.6664 Cl  0  0  0  0  0  0  0  0  0  0  0  0
   -2.7676   -2.3695    4.9064 F   0  0  0  0  0  0  0  0  0  0  0  0
   -0.5576   -1.9902    5.6638 C   0  0  0  0  0  0  0  0  0  0  0  0
    1.5153   -1.6964    6.1171 H   0  0  0  0  0  0  0  0  0  0  0  0
   -0.8842   -2.0918    6.6853 H   0  0  0  0  0  0  0  0  0  0  0  0
  1  2  4  0  0  0  0
  2  3  4  0  0  0  0
  3  4  4  0  0  0  0
  4  5  4  0  0  0  0
  1  6  4  0  0  0  0
  5  6  4  0  0  0  0
  6  7  1  0  0  0  0
  5  8  1  0  0  0  0
  3  9  1  0  0  0  0
  2 10  1  0  0  0  0
 10 11  4  0  0  0  0
 11 12  4  0  0  0  0
 12 13  4  0  0  0  0
 13 14  4  0  0  0  0
 10 15  4  0  0  0  0
 14 15  4  0  0  0  0
 15 16  1  0  0  0  0
 13 17  1  0  0  0  0
 12 18  1  0  0  0  0
  1 19  1  0  0  0  0
 11 19  1  0  0  0  0
 19 20  1  0  0  0  0
 19 21  1  0  0  0  0
 21 22  1  0  0  0  0
 22 23  1  0  0  0  0
 23 24  1  0  0  0  0
 24 25  1  0  0  0  0
 24 26  1  0  0  0  0
 24 27  1  0  0  0  0
 23 28  1  0  0  0  0
 28 29  1  0  0  0  0
 28 30  1  0  0  0  0
 28 31  1  0  0  0  0
 23 32  1  0  0  0  0
 21 33  1  0  0  0  0
 32 33  1  0  0  0  0
 32 34  1  0  0  0  0
 34 35  1  0  0  0  0
 34 36  1  0  0  0  0
 34 37  1  0  0  0  0
 32 38  1  0  0  0  0
 38 39  1  0  0  0  0
 38 40  1  0  0  0  0
 38 41  1  0  0  0  0
 19 42  1  0  0  0  0
 42 43  1  0  0  0  0
 43 44  1  0  0  0  0
 44 45  1  0  0  0  0
 45 46  1  0  0  0  0
 45 47  1  0  0  0  0
 45 48  1  0  0  0  0
 44 49  1  0  0  0  0
 49 50  1  0  0  0  0
 49 51  1  0  0  0  0
 49 52  1  0  0  0  0
 44 53  1  0  0  0  0
 42 54  1  0  0  0  0
 53 54  1  0  0  0  0
 53 55  1  0  0  0  0
 55 56  1  0  0  0  0
 55 57  1  0  0  0  0
 55 58  1  0  0  0  0
 53 59  1  0  0  0  0
 59 60  1  0  0  0  0
 59 61  1  0  0  0  0
 59 62  1  0  0  0  0
 19 63  1  0  0  0  0
 63 64  1  0  0  0  0
 64 65  1  0  0  0  0
 65 66  1  0  0  0  0
 66 67  1  0  0  0  0
 66 68  1  0  0  0  0
 66 69  1  0  0  0  0
 65 70  1  0  0  0  0
 70 71  1  0  0  0  0
 70 72  1  0  0  0  0
 70 73  1  0  0  0  0
 65 74  1  0  0  0  0
 63 75  1  0  0  0  0
 74 75  1  0  0  0  0
 74 76  1  0  0  0  0
 76 77  1  0  0  0  0
 76 78  1  0  0  0  0
 76 79  1  0  0  0  0
 74 80  1  0  0  0  0
 80 81  1  0  0  0  0
 80 82  1  0  0  0  0
 80 83  1  0  0  0  0
  4 84  1  0  0  0  0
 14 85  1  0  0  0  0
 19 86  1  0  0  0  0
 20 86  1  0  0  0  0
 86 87  4  0  0  0  0
 86 88  4  0  0  0  0
 87 89  4  0  0  0  0
 87 90  1  0  0  0  0
 88 91  4  0  0  0  0
 88 92  1  0  0  0  0
 89 93  1  0  0  0  0
 89 94  4  0  0  0  0
 91 94  4  0  0  0  0
 91 95  1  0  0  0  0
 94 96  1  0  0  0  0
M  END
