
  xtb     01142215323D
 xtb: 6.4.1 (1a32961)
101108  0     0  0            999 V2000
   -0.8910   -2.0323   -0.3733 N   0  0  0  0  0  0  0  0  0  0  0  0
   -2.1423   -1.5678   -0.5551 C   0  0  0  0  0  0  0  0  0  0  0  0
   -3.0079   -2.1736   -1.4758 C   0  0  0  0  0  0  0  0  0  0  0  0
   -2.5786   -3.2528   -2.2152 C   0  0  0  0  0  0  0  0  0  0  0  0
   -1.2790   -3.7175   -2.0218 C   0  0  0  0  0  0  0  0  0  0  0  0
   -0.4870   -3.0753   -1.0945 C   0  0  0  0  0  0  0  0  0  0  0  0
    0.5252   -3.4049   -0.9070 H   0  0  0  0  0  0  0  0  0  0  0  0
   -0.9003   -4.5596   -2.5780 H   0  0  0  0  0  0  0  0  0  0  0  0
   -4.0104   -1.8025   -1.6123 H   0  0  0  0  0  0  0  0  0  0  0  0
   -2.5222   -0.4131    0.2456 C   0  0  0  0  0  0  0  0  0  0  0  0
   -1.5866    0.0645    1.0951 N   0  0  0  0  0  0  0  0  0  0  0  0
   -1.8910    1.1176    1.8514 C   0  0  0  0  0  0  0  0  0  0  0  0
   -3.1117    1.7583    1.8118 C   0  0  0  0  0  0  0  0  0  0  0  0
   -4.0828    1.2860    0.9316 C   0  0  0  0  0  0  0  0  0  0  0  0
   -3.7801    0.1956    0.1461 C   0  0  0  0  0  0  0  0  0  0  0  0
   -4.5180   -0.1827   -0.5419 H   0  0  0  0  0  0  0  0  0  0  0  0
   -3.3052    2.6025    2.4537 H   0  0  0  0  0  0  0  0  0  0  0  0
   -1.1040    1.4533    2.5090 H   0  0  0  0  0  0  0  0  0  0  0  0
    0.4215   -0.8165    0.9133 Ir  0  0  0  0  0  0  0  0  0  0  0  0
    0.8726   -2.2303    1.5405 H   0  0  0  0  0  0  0  0  0  0  0  0
    0.4033    0.6045   -0.6141 B   0  0  0  0  0  0  0  0  0  0  0  0
   -0.2106    0.3020   -1.8159 O   0  0  0  0  0  0  0  0  0  0  0  0
   -0.3205    1.4787   -2.6221 C   0  0  0  0  0  0  0  0  0  0  0  0
   -0.0263    1.1318   -4.0795 C   0  0  0  0  0  0  0  0  0  0  0  0
    0.9149    0.5986   -4.1640 H   0  0  0  0  0  0  0  0  0  0  0  0
    0.0095    2.0369   -4.6805 H   0  0  0  0  0  0  0  0  0  0  0  0
   -0.8166    0.4887   -4.4598 H   0  0  0  0  0  0  0  0  0  0  0  0
   -1.7699    1.9721   -2.5039 C   0  0  0  0  0  0  0  0  0  0  0  0
   -1.9413    2.8412   -3.1321 H   0  0  0  0  0  0  0  0  0  0  0  0
   -2.4366    1.1708   -2.8174 H   0  0  0  0  0  0  0  0  0  0  0  0
   -2.0011    2.2162   -1.4688 H   0  0  0  0  0  0  0  0  0  0  0  0
    0.7068    2.4488   -1.9515 C   0  0  0  0  0  0  0  0  0  0  0  0
    0.8141    1.9189   -0.6237 O   0  0  0  0  0  0  0  0  0  0  0  0
    2.1025    2.3488   -2.5796 C   0  0  0  0  0  0  0  0  0  0  0  0
    2.4359    1.3146   -2.5405 H   0  0  0  0  0  0  0  0  0  0  0  0
    2.1051    2.7141   -3.6026 H   0  0  0  0  0  0  0  0  0  0  0  0
    2.7946    2.9445   -1.9890 H   0  0  0  0  0  0  0  0  0  0  0  0
    0.2740    3.9126   -1.8979 C   0  0  0  0  0  0  0  0  0  0  0  0
   -0.6231    4.0378   -1.2993 H   0  0  0  0  0  0  0  0  0  0  0  0
    1.0677    4.5024   -1.4454 H   0  0  0  0  0  0  0  0  0  0  0  0
    0.0929    4.2834   -2.9037 H   0  0  0  0  0  0  0  0  0  0  0  0
    1.5573    0.6462    1.8807 B   0  0  0  0  0  0  0  0  0  0  0  0
    2.9252    0.8007    1.8661 O   0  0  0  0  0  0  0  0  0  0  0  0
    3.2839    2.0785    2.4098 C   0  0  0  0  0  0  0  0  0  0  0  0
    4.5556    1.9492    3.2467 C   0  0  0  0  0  0  0  0  0  0  0  0
    4.4587    1.1625    3.9868 H   0  0  0  0  0  0  0  0  0  0  0  0
    5.3874    1.6979    2.5939 H   0  0  0  0  0  0  0  0  0  0  0  0
    4.7729    2.8919    3.7416 H   0  0  0  0  0  0  0  0  0  0  0  0
    3.5488    3.0029    1.2156 C   0  0  0  0  0  0  0  0  0  0  0  0
    3.8165    4.0053    1.5367 H   0  0  0  0  0  0  0  0  0  0  0  0
    4.3667    2.5880    0.6308 H   0  0  0  0  0  0  0  0  0  0  0  0
    2.6645    3.0252    0.5841 H   0  0  0  0  0  0  0  0  0  0  0  0
    2.0013    2.4816    3.2138 C   0  0  0  0  0  0  0  0  0  0  0  0
    0.9881    1.6566    2.6253 O   0  0  0  0  0  0  0  0  0  0  0  0
    1.5966    3.9491    3.0873 C   0  0  0  0  0  0  0  0  0  0  0  0
    1.3473    4.1897    2.0592 H   0  0  0  0  0  0  0  0  0  0  0  0
    0.7181    4.1307    3.7019 H   0  0  0  0  0  0  0  0  0  0  0  0
    2.4024    4.5926    3.4302 H   0  0  0  0  0  0  0  0  0  0  0  0
    2.0803    2.1051    4.6988 C   0  0  0  0  0  0  0  0  0  0  0  0
    2.3164    1.0496    4.7945 H   0  0  0  0  0  0  0  0  0  0  0  0
    2.8239    2.7030    5.2166 H   0  0  0  0  0  0  0  0  0  0  0  0
    1.1080    2.2770    5.1546 H   0  0  0  0  0  0  0  0  0  0  0  0
    2.2782   -1.3309    0.1741 B   0  0  0  0  0  0  0  0  0  0  0  0
    3.1471   -2.2557    0.7177 O   0  0  0  0  0  0  0  0  0  0  0  0
    4.4133   -2.2106    0.0469 C   0  0  0  0  0  0  0  0  0  0  0  0
    5.3642   -1.4300    0.9609 C   0  0  0  0  0  0  0  0  0  0  0  0
    4.9229   -0.4628    1.1837 H   0  0  0  0  0  0  0  0  0  0  0  0
    5.4701   -1.9753    1.8953 H   0  0  0  0  0  0  0  0  0  0  0  0
    6.3437   -1.3111    0.5086 H   0  0  0  0  0  0  0  0  0  0  0  0
    4.9426   -3.6325   -0.1396 C   0  0  0  0  0  0  0  0  0  0  0  0
    5.1346   -4.0665    0.8378 H   0  0  0  0  0  0  0  0  0  0  0  0
    5.8697   -3.6145   -0.7054 H   0  0  0  0  0  0  0  0  0  0  0  0
    4.2192   -4.2598   -0.6494 H   0  0  0  0  0  0  0  0  0  0  0  0
    4.0749   -1.4493   -1.2830 C   0  0  0  0  0  0  0  0  0  0  0  0
    2.8216   -0.8178   -0.9811 O   0  0  0  0  0  0  0  0  0  0  0  0
    5.0909   -0.3807   -1.6837 C   0  0  0  0  0  0  0  0  0  0  0  0
    6.0748   -0.8233   -1.8125 H   0  0  0  0  0  0  0  0  0  0  0  0
    4.7835    0.0689   -2.6246 H   0  0  0  0  0  0  0  0  0  0  0  0
    5.1329    0.4009   -0.9331 H   0  0  0  0  0  0  0  0  0  0  0  0
    3.8349   -2.3855   -2.4751 C   0  0  0  0  0  0  0  0  0  0  0  0
    3.0866   -3.1319   -2.2235 H   0  0  0  0  0  0  0  0  0  0  0  0
    3.4530   -1.7976   -3.3064 H   0  0  0  0  0  0  0  0  0  0  0  0
    4.7551   -2.8740   -2.7808 H   0  0  0  0  0  0  0  0  0  0  0  0
   -3.2355   -3.7263   -2.9289 H   0  0  0  0  0  0  0  0  0  0  0  0
   -5.0503    1.7605    0.8656 H   0  0  0  0  0  0  0  0  0  0  0  0
    0.2359   -1.6814    2.9603 C   0  0  0  0  0  0  0  0  0  0  0  0
   -1.0547   -1.8291    3.4901 C   0  0  0  0  0  0  0  0  0  0  0  0
    1.1159   -1.8375    4.0279 C   0  0  0  0  0  0  0  0  0  0  0  0
   -0.9322   -2.0133    4.8651 C   0  0  0  0  0  0  0  0  0  0  0  0
   -1.9918   -1.8086    2.9668 H   0  0  0  0  0  0  0  0  0  0  0  0
    0.4069   -2.0179    5.1708 N   0  0  0  0  0  0  0  0  0  0  0  0
    2.5995   -1.8874    4.0289 C   0  0  0  0  0  0  0  0  0  0  0  0
   -1.9419   -2.1694    5.8028 C   0  0  0  0  0  0  0  0  0  0  0  0
    0.9602   -2.2136    6.4830 C   0  0  0  0  0  0  0  0  0  0  0  0
    2.9587   -1.6240    3.0392 H   0  0  0  0  0  0  0  0  0  0  0  0
    2.9420   -2.8923    4.2788 H   0  0  0  0  0  0  0  0  0  0  0  0
    3.0176   -1.2009    4.7638 H   0  0  0  0  0  0  0  0  0  0  0  0
   -2.8012   -2.2966    6.5632 N   0  0  0  0  0  0  0  0  0  0  0  0
    0.1490   -2.3614    7.1939 H   0  0  0  0  0  0  0  0  0  0  0  0
    1.5437   -1.3419    6.7858 H   0  0  0  0  0  0  0  0  0  0  0  0
    1.6092   -3.0913    6.4936 H   0  0  0  0  0  0  0  0  0  0  0  0
  1  2  4  0  0  0  0
  2  3  4  0  0  0  0
  3  4  4  0  0  0  0
  4  5  4  0  0  0  0
  1  6  4  0  0  0  0
  5  6  4  0  0  0  0
  6  7  1  0  0  0  0
  5  8  1  0  0  0  0
  3  9  1  0  0  0  0
  2 10  1  0  0  0  0
 10 11  4  0  0  0  0
 11 12  4  0  0  0  0
 12 13  4  0  0  0  0
 13 14  4  0  0  0  0
 10 15  4  0  0  0  0
 14 15  4  0  0  0  0
 15 16  1  0  0  0  0
 13 17  1  0  0  0  0
 12 18  1  0  0  0  0
  1 19  1  0  0  0  0
 11 19  1  0  0  0  0
 19 20  1  0  0  0  0
 19 21  1  0  0  0  0
 21 22  1  0  0  0  0
 22 23  1  0  0  0  0
 23 24  1  0  0  0  0
 24 25  1  0  0  0  0
 24 26  1  0  0  0  0
 24 27  1  0  0  0  0
 23 28  1  0  0  0  0
 28 29  1  0  0  0  0
 28 30  1  0  0  0  0
 28 31  1  0  0  0  0
 23 32  1  0  0  0  0
 21 33  1  0  0  0  0
 32 33  1  0  0  0  0
 32 34  1  0  0  0  0
 34 35  1  0  0  0  0
 34 36  1  0  0  0  0
 34 37  1  0  0  0  0
 32 38  1  0  0  0  0
 38 39  1  0  0  0  0
 38 40  1  0  0  0  0
 38 41  1  0  0  0  0
 19 42  1  0  0  0  0
 42 43  1  0  0  0  0
 43 44  1  0  0  0  0
 44 45  1  0  0  0  0
 45 46  1  0  0  0  0
 45 47  1  0  0  0  0
 45 48  1  0  0  0  0
 44 49  1  0  0  0  0
 49 50  1  0  0  0  0
 49 51  1  0  0  0  0
 49 52  1  0  0  0  0
 44 53  1  0  0  0  0
 42 54  1  0  0  0  0
 53 54  1  0  0  0  0
 53 55  1  0  0  0  0
 55 56  1  0  0  0  0
 55 57  1  0  0  0  0
 55 58  1  0  0  0  0
 53 59  1  0  0  0  0
 59 60  1  0  0  0  0
 59 61  1  0  0  0  0
 59 62  1  0  0  0  0
 19 63  1  0  0  0  0
 63 64  1  0  0  0  0
 64 65  1  0  0  0  0
 65 66  1  0  0  0  0
 66 67  1  0  0  0  0
 66 68  1  0  0  0  0
 66 69  1  0  0  0  0
 65 70  1  0  0  0  0
 70 71  1  0  0  0  0
 70 72  1  0  0  0  0
 70 73  1  0  0  0  0
 65 74  1  0  0  0  0
 63 75  1  0  0  0  0
 74 75  1  0  0  0  0
 74 76  1  0  0  0  0
 76 77  1  0  0  0  0
 76 78  1  0  0  0  0
 76 79  1  0  0  0  0
 74 80  1  0  0  0  0
 80 81  1  0  0  0  0
 80 82  1  0  0  0  0
 80 83  1  0  0  0  0
  4 84  1  0  0  0  0
 14 85  1  0  0  0  0
 19 86  1  0  0  0  0
 20 86  1  0  0  0  0
 86 87  4  0  0  0  0
 86 88  4  0  0  0  0
 87 89  4  0  0  0  0
 87 90  1  0  0  0  0
 88 91  4  0  0  0  0
 89 91  1  0  0  0  0
 88 92  1  0  0  0  0
 89 93  1  0  0  0  0
 91 94  1  0  0  0  0
 92 95  1  0  0  0  0
 92 96  1  0  0  0  0
 92 97  1  0  0  0  0
 93 98  3  0  0  0  0
 94 99  1  0  0  0  0
 94100  1  0  0  0  0
 94101  1  0  0  0  0
M  END
