   16
Created with kallisto
C      1.2578    1.2182   -0.0024
C     -0.1426    1.2854   -0.0170
C      1.8945   -0.0211    0.0052
C     -0.7892    2.6140   -0.0340
C     -0.8380    0.0843   -0.0177
C      1.1087   -1.1601    0.0002
H      2.9772   -0.0951    0.0136
O     -0.1457    3.6543   -0.0356
O     -2.1381    2.5294   -0.0501
F     -2.1796    0.0643   -0.0256
N     -0.2401   -1.1352   -0.0098
H      1.5551   -2.1513    0.0037
C     -2.8178    3.7870   -0.0725
H     -3.8936    3.5897   -0.0769
H     -2.5646    4.3440   -0.9800
H     -2.5770    4.3707    0.8215
