   14
Created with kallisto
C      0.2758   -1.2125    0.0025
C      0.9902   -0.0086    0.0010
C     -1.1202   -1.2050    0.0034
C      2.4900   -0.0008   -0.0130
C      0.2858    1.2021    0.0043
C     -1.8127    0.0049    0.0037
H     -1.6676   -2.1438    0.0019
H      2.8975   -1.0170    0.0013
H      2.8738    0.5270    0.8659
H      2.8545    0.4946   -0.9187
C     -1.1101    1.2081    0.0056
H      0.8226    2.1479    0.0035
H     -2.8995    0.0094    0.0018
H     -1.6485    2.1522    0.0070
