   22

C          1.20242        1.42749        0.02514
C          2.41412        0.73926       -0.00611
C          2.42279       -0.65483       -0.04717
C          3.71070       -1.41792       -0.12910
C          1.19783       -1.34492       -0.02627
C         -0.02472       -0.68297        0.00083
N         -1.16928       -1.39292        0.00348
C         -2.34823       -0.72459        0.00418
C         -3.60375       -1.54392       -0.00251
C         -2.42564        0.66172       -0.00844
C         -1.24350        1.39283        0.00666
C         -0.01467        0.72612        0.01511
H          1.21235        2.51433        0.04911
H          3.34608        1.29973       -0.00921
H          4.57342       -0.74444       -0.16832
H          3.72643       -2.02960       -1.03737
H          3.82736       -2.06591        0.74513
H         -3.37834       -2.60476        0.14712
H         -4.12080       -1.43281       -0.96066
H         -4.27073       -1.22378        0.80432
H         -3.38526        1.16760       -0.02738
H         -1.28778        2.47844        0.00337
