   16
Created with kallisto
C     -2.0907    0.6862    0.0003
C     -0.8882    1.4064   -0.0004
C     -2.0947   -0.7152    0.0014
C      0.2715    0.6404   -0.0000
H     -0.8599    2.4888   -0.0007
C     -0.9060   -1.4561    0.0013
Br    -3.7493   -1.6365    0.0032
C      0.3000   -0.7457    0.0006
O      1.5622    1.0840   -0.0000
H     -0.8998   -2.5396    0.0022
N      1.5988   -1.1844    0.0007
C      2.3039   -0.0691    0.0003
C      3.7715    0.0895    0.0008
H      4.2613   -0.8890    0.0006
H      4.0995    0.6353    0.8903
H      4.1003    0.6361   -0.8878
