    8

C         -0.20310        1.09586       -0.00500
O         -1.07762        0.05664       -0.01013
C         -0.33593       -1.08121       -0.00394
C          1.00614       -0.77977        0.00603
C          1.09241        0.63348        0.00574
H         -0.89753       -2.00489       -0.00816
H          1.81929       -1.49166        0.01217
H          1.98605        1.24119        0.01177
