   40
Created with kallisto
C      1.6407    1.7334   -0.0049
C      3.0212    1.5410   -0.0473
C      0.7671    0.6221    0.0160
C      3.5385    0.2595   -0.0995
H      3.6894    2.3979   -0.0394
C      1.2979   -0.6722   -0.0339
C     -0.6537    0.5139    0.0454
C      2.6929   -0.8523   -0.1166
H      4.6153    0.1070   -0.1134
N      0.2187   -1.5524    0.0442
C     -0.9746   -0.8430    0.0567
C     -1.6947    1.4680    0.0349
H      3.1536   -1.8263   -0.1334
O      0.2045   -2.9604   -0.1358
C     -2.3103   -1.2779    0.0501
C     -3.0343    1.0578    0.0158
H     -1.4478    2.5277    0.0165
Si     1.2591   -3.9167    0.7439
C     -3.3282   -0.3099    0.0315
H     -2.5561   -2.3361    0.0444
C     -4.1352    2.0919   -0.0211
C      2.6488   -4.4471   -0.4436
C      1.8952   -3.1420    2.3314
C      0.5214   -5.5795    1.2942
H     -4.3652   -0.6420    0.0204
C     -4.5563    2.5373    1.3702
H     -5.0026    1.6948   -0.5615
H     -3.7974    2.9639   -0.5959
H      3.0027   -3.6236   -1.0631
H      2.2574   -5.2041   -1.1307
H      3.4942   -4.8732    0.1045
H      2.2241   -2.1086    2.2172
H      2.7391   -3.7164    2.7254
H      1.1031   -3.1478    3.0877
H      0.1458   -6.1432    0.4368
H     -0.2830   -5.4341    2.0185
H      1.3112   -6.1714    1.7719
H     -4.9501    1.7003    1.9540
H     -5.3401    3.3013    1.3019
H     -3.7153    2.9693    1.9241
