   16

C         -1.57330        0.03597       -0.01716
C         -1.37317        1.40343       -0.01278
C          0.02187        1.63539        0.01049
C          0.64737        0.40560        0.01483
C          2.04897        0.15785        0.01073
N          3.18311       -0.08994        0.00024
N         -0.32939       -0.56295        0.01424
C         -0.10277       -1.99480        0.02489
C         -2.84639       -0.73321       -0.05723
H         -2.15250        2.15571       -0.03382
H          0.96546       -2.21441        0.07136
H         -0.52125       -2.41358       -0.89359
H         -0.59601       -2.41526        0.90495
H         -3.70968       -0.06036       -0.07800
H         -2.94037       -1.37458        0.82456
H         -2.88762       -1.35989       -0.95382
