   20
Created with kallisto
C      1.9918   -5.2705   -0.1406
C      0.7978   -4.8700   -0.7116
C      2.7463   -4.3161    0.5253
N      0.3270   -3.6034   -0.6664
H      0.1661   -5.5781   -1.2402
C      2.2843   -3.0029    0.5875
H      3.6866   -4.5871    0.9966
C      1.0758   -2.6677   -0.0268
H      2.8647   -2.2613    1.1254
C      0.5332   -1.2915   -0.0228
C      1.3715   -0.1611   -0.0016
C     -0.8554   -1.0607   -0.0485
C      0.8490    1.1366    0.0146
H      2.4529   -0.2751   -0.0173
C     -1.3814    0.2353   -0.0328
H     -1.5421   -1.9058   -0.0792
C     -0.5274    1.3337    0.0030
H      1.5219    1.9901    0.0297
H     -2.4580    0.3818   -0.0511
H     -0.9342    2.3413    0.0138
