
  xtb     01142213393D
 xtb: 6.4.1 (1a32961)
105113  0     0  0            999 V2000
   -0.8892   -1.9867   -0.4430 N   0  0  0  0  0  0  0  0  0  0  0  0
   -2.1421   -1.5155   -0.5835 C   0  0  0  0  0  0  0  0  0  0  0  0
   -2.9735   -1.9745   -1.6122 C   0  0  0  0  0  0  0  0  0  0  0  0
   -2.5132   -2.9307   -2.4908 C   0  0  0  0  0  0  0  0  0  0  0  0
   -1.2199   -3.4191   -2.3252 C   0  0  0  0  0  0  0  0  0  0  0  0
   -0.4565   -2.9123   -1.2945 C   0  0  0  0  0  0  0  0  0  0  0  0
    0.5545   -3.2573   -1.1306 H   0  0  0  0  0  0  0  0  0  0  0  0
   -0.8195   -4.1707   -2.9860 H   0  0  0  0  0  0  0  0  0  0  0  0
   -3.9672   -1.5757   -1.7335 H   0  0  0  0  0  0  0  0  0  0  0  0
   -2.5610   -0.4973    0.3729 C   0  0  0  0  0  0  0  0  0  0  0  0
   -1.6095   -0.0217    1.2028 N   0  0  0  0  0  0  0  0  0  0  0  0
   -1.9432    0.9175    2.0847 C   0  0  0  0  0  0  0  0  0  0  0  0
   -3.2186    1.4302    2.2067 C   0  0  0  0  0  0  0  0  0  0  0  0
   -4.2144    0.9412    1.3657 C   0  0  0  0  0  0  0  0  0  0  0  0
   -3.8773   -0.0252    0.4425 C   0  0  0  0  0  0  0  0  0  0  0  0
   -4.6356   -0.4226   -0.2113 H   0  0  0  0  0  0  0  0  0  0  0  0
   -3.4328    2.1845    2.9463 H   0  0  0  0  0  0  0  0  0  0  0  0
   -1.1370    1.2692    2.7099 H   0  0  0  0  0  0  0  0  0  0  0  0
    0.4215   -0.8165    0.9133 Ir  0  0  0  0  0  0  0  0  0  0  0  0
    0.8726   -2.2303    1.5405 H   0  0  0  0  0  0  0  0  0  0  0  0
    0.3652    0.6656   -0.5602 B   0  0  0  0  0  0  0  0  0  0  0  0
   -0.3674    0.4619   -1.7179 O   0  0  0  0  0  0  0  0  0  0  0  0
   -0.5177    1.6971   -2.4250 C   0  0  0  0  0  0  0  0  0  0  0  0
   -0.4100    1.4511   -3.9277 C   0  0  0  0  0  0  0  0  0  0  0  0
    0.4929    0.8987   -4.1652 H   0  0  0  0  0  0  0  0  0  0  0  0
   -0.4104    2.3981   -4.4614 H   0  0  0  0  0  0  0  0  0  0  0  0
   -1.2643    0.8626   -4.2542 H   0  0  0  0  0  0  0  0  0  0  0  0
   -1.9207    2.2302   -2.0989 C   0  0  0  0  0  0  0  0  0  0  0  0
   -2.1279    3.1499   -2.6378 H   0  0  0  0  0  0  0  0  0  0  0  0
   -2.6538    1.4782   -2.3851 H   0  0  0  0  0  0  0  0  0  0  0  0
   -2.0151    2.4015   -1.0283 H   0  0  0  0  0  0  0  0  0  0  0  0
    0.6194    2.5782   -1.8130 C   0  0  0  0  0  0  0  0  0  0  0  0
    0.8373    1.9581   -0.5385 O   0  0  0  0  0  0  0  0  0  0  0  0
    1.9357    2.4612   -2.5909 C   0  0  0  0  0  0  0  0  0  0  0  0
    2.2146    1.4127   -2.6656 H   0  0  0  0  0  0  0  0  0  0  0  0
    1.8539    2.9062   -3.5782 H   0  0  0  0  0  0  0  0  0  0  0  0
    2.7161    2.9735   -2.0329 H   0  0  0  0  0  0  0  0  0  0  0  0
    0.2648    4.0517   -1.6245 C   0  0  0  0  0  0  0  0  0  0  0  0
   -0.5489    4.1723   -0.9160 H   0  0  0  0  0  0  0  0  0  0  0  0
    1.1325    4.5810   -1.2381 H   0  0  0  0  0  0  0  0  0  0  0  0
   -0.0163    4.4912   -2.5781 H   0  0  0  0  0  0  0  0  0  0  0  0
    1.5474    0.6505    1.8854 B   0  0  0  0  0  0  0  0  0  0  0  0
    2.9101    0.8227    1.8849 O   0  0  0  0  0  0  0  0  0  0  0  0
    3.2497    2.0866    2.4748 C   0  0  0  0  0  0  0  0  0  0  0  0
    4.5067    1.9383    3.3309 C   0  0  0  0  0  0  0  0  0  0  0  0
    4.3984    1.1340    4.0508 H   0  0  0  0  0  0  0  0  0  0  0  0
    5.3503    1.7035    2.6870 H   0  0  0  0  0  0  0  0  0  0  0  0
    4.7134    2.8686    3.8530 H   0  0  0  0  0  0  0  0  0  0  0  0
    3.5311    3.0474    1.3136 C   0  0  0  0  0  0  0  0  0  0  0  0
    3.7769    4.0433    1.6695 H   0  0  0  0  0  0  0  0  0  0  0  0
    4.3691    2.6601    0.7384 H   0  0  0  0  0  0  0  0  0  0  0  0
    2.6622    3.0755    0.6613 H   0  0  0  0  0  0  0  0  0  0  0  0
    1.9506    2.4567    3.2697 C   0  0  0  0  0  0  0  0  0  0  0  0
    0.9550    1.6310    2.6507 O   0  0  0  0  0  0  0  0  0  0  0  0
    1.5269    3.9206    3.1639 C   0  0  0  0  0  0  0  0  0  0  0  0
    1.2945    4.1776    2.1359 H   0  0  0  0  0  0  0  0  0  0  0  0
    0.6339    4.0762    3.7645 H   0  0  0  0  0  0  0  0  0  0  0  0
    2.3161    4.5683    3.5359 H   0  0  0  0  0  0  0  0  0  0  0  0
    2.0134    2.0558    4.7493 C   0  0  0  0  0  0  0  0  0  0  0  0
    2.2619    1.0020    4.8390 H   0  0  0  0  0  0  0  0  0  0  0  0
    2.7405    2.6564    5.2871 H   0  0  0  0  0  0  0  0  0  0  0  0
    1.0322    2.2065    5.1938 H   0  0  0  0  0  0  0  0  0  0  0  0
    2.2782   -1.3309    0.1741 B   0  0  0  0  0  0  0  0  0  0  0  0
    3.1782   -2.2017    0.7491 O   0  0  0  0  0  0  0  0  0  0  0  0
    4.4339   -2.1540    0.0589 C   0  0  0  0  0  0  0  0  0  0  0  0
    5.3814   -1.3252    0.9329 C   0  0  0  0  0  0  0  0  0  0  0  0
    4.9200   -0.3634    1.1373 H   0  0  0  0  0  0  0  0  0  0  0  0
    5.5146   -1.8407    1.8807 H   0  0  0  0  0  0  0  0  0  0  0  0
    6.3503   -1.1963    0.4608 H   0  0  0  0  0  0  0  0  0  0  0  0
    4.9891   -3.5716   -0.0831 C   0  0  0  0  0  0  0  0  0  0  0  0
    5.1883   -3.9696    0.9083 H   0  0  0  0  0  0  0  0  0  0  0  0
    5.9160   -3.5549   -0.6495 H   0  0  0  0  0  0  0  0  0  0  0  0
    4.2772   -4.2289   -0.5709 H   0  0  0  0  0  0  0  0  0  0  0  0
    4.0649   -1.4473   -1.2948 C   0  0  0  0  0  0  0  0  0  0  0  0
    2.7866   -0.8583   -1.0138 O   0  0  0  0  0  0  0  0  0  0  0  0
    5.0311   -0.3446   -1.7264 C   0  0  0  0  0  0  0  0  0  0  0  0
    6.0322   -0.7455   -1.8574 H   0  0  0  0  0  0  0  0  0  0  0  0
    4.6929    0.0719   -2.6719 H   0  0  0  0  0  0  0  0  0  0  0  0
    5.0452    0.4531   -0.9918 H   0  0  0  0  0  0  0  0  0  0  0  0
    3.8702   -2.4255   -2.4612 C   0  0  0  0  0  0  0  0  0  0  0  0
    3.1495   -3.1933   -2.1943 H   0  0  0  0  0  0  0  0  0  0  0  0
    3.4751   -1.8766   -3.3125 H   0  0  0  0  0  0  0  0  0  0  0  0
    4.8112   -2.8874   -2.7440 H   0  0  0  0  0  0  0  0  0  0  0  0
   -3.1421   -3.2897   -3.2912 H   0  0  0  0  0  0  0  0  0  0  0  0
   -5.2276    1.3066    1.4347 H   0  0  0  0  0  0  0  0  0  0  0  0
    0.2359   -1.6814    2.9603 C   0  0  0  0  0  0  0  0  0  0  0  0
   -1.0176   -2.1215    3.3862 C   0  0  0  0  0  0  0  0  0  0  0  0
    1.2104   -1.5755    3.9553 C   0  0  0  0  0  0  0  0  0  0  0  0
   -1.3356   -2.3672    4.6437 N   0  0  0  0  0  0  0  0  0  0  0  0
   -1.8232   -2.3055    2.6833 H   0  0  0  0  0  0  0  0  0  0  0  0
    0.8873   -1.8192    5.2766 C   0  0  0  0  0  0  0  0  0  0  0  0
    2.2233   -1.3238    3.6766 H   0  0  0  0  0  0  0  0  0  0  0  0
   -0.4141   -2.2156    5.5966 C   0  0  0  0  0  0  0  0  0  0  0  0
    1.6434   -1.7545    6.0446 H   0  0  0  0  0  0  0  0  0  0  0  0
   -0.8202   -2.5630    6.9652 C   0  0  0  0  0  0  0  0  0  0  0  0
   -0.1666   -2.0515    8.0854 C   0  0  0  0  0  0  0  0  0  0  0  0
   -1.8808   -3.4493    7.1577 C   0  0  0  0  0  0  0  0  0  0  0  0
   -0.5521   -2.4315    9.3581 C   0  0  0  0  0  0  0  0  0  0  0  0
    0.6380   -1.3417    7.9658 H   0  0  0  0  0  0  0  0  0  0  0  0
   -2.2628   -3.8280    8.4300 C   0  0  0  0  0  0  0  0  0  0  0  0
   -2.3894   -3.8356    6.2881 H   0  0  0  0  0  0  0  0  0  0  0  0
   -1.5957   -3.3250    9.5361 C   0  0  0  0  0  0  0  0  0  0  0  0
   -0.0349   -2.0281   10.2169 H   0  0  0  0  0  0  0  0  0  0  0  0
   -3.0812   -4.5211    8.5618 H   0  0  0  0  0  0  0  0  0  0  0  0
   -1.8887   -3.6258   10.5313 H   0  0  0  0  0  0  0  0  0  0  0  0
  1  2  4  0  0  0  0
  2  3  4  0  0  0  0
  3  4  4  0  0  0  0
  4  5  4  0  0  0  0
  1  6  4  0  0  0  0
  5  6  4  0  0  0  0
  6  7  1  0  0  0  0
  5  8  1  0  0  0  0
  3  9  1  0  0  0  0
  2 10  1  0  0  0  0
 10 11  4  0  0  0  0
 11 12  4  0  0  0  0
 12 13  4  0  0  0  0
 13 14  4  0  0  0  0
 10 15  4  0  0  0  0
 14 15  4  0  0  0  0
 15 16  1  0  0  0  0
 13 17  1  0  0  0  0
 12 18  1  0  0  0  0
  1 19  1  0  0  0  0
 11 19  1  0  0  0  0
 19 20  1  0  0  0  0
 19 21  1  0  0  0  0
 21 22  1  0  0  0  0
 22 23  1  0  0  0  0
 23 24  1  0  0  0  0
 24 25  1  0  0  0  0
 24 26  1  0  0  0  0
 24 27  1  0  0  0  0
 23 28  1  0  0  0  0
 28 29  1  0  0  0  0
 28 30  1  0  0  0  0
 28 31  1  0  0  0  0
 23 32  1  0  0  0  0
 21 33  1  0  0  0  0
 32 33  1  0  0  0  0
 32 34  1  0  0  0  0
 34 35  1  0  0  0  0
 34 36  1  0  0  0  0
 34 37  1  0  0  0  0
 32 38  1  0  0  0  0
 38 39  1  0  0  0  0
 38 40  1  0  0  0  0
 38 41  1  0  0  0  0
 19 42  1  0  0  0  0
 42 43  1  0  0  0  0
 43 44  1  0  0  0  0
 44 45  1  0  0  0  0
 45 46  1  0  0  0  0
 45 47  1  0  0  0  0
 45 48  1  0  0  0  0
 44 49  1  0  0  0  0
 49 50  1  0  0  0  0
 49 51  1  0  0  0  0
 49 52  1  0  0  0  0
 44 53  1  0  0  0  0
 42 54  1  0  0  0  0
 53 54  1  0  0  0  0
 53 55  1  0  0  0  0
 55 56  1  0  0  0  0
 55 57  1  0  0  0  0
 55 58  1  0  0  0  0
 53 59  1  0  0  0  0
 59 60  1  0  0  0  0
 59 61  1  0  0  0  0
 59 62  1  0  0  0  0
 19 63  1  0  0  0  0
 63 64  1  0  0  0  0
 64 65  1  0  0  0  0
 65 66  1  0  0  0  0
 66 67  1  0  0  0  0
 66 68  1  0  0  0  0
 66 69  1  0  0  0  0
 65 70  1  0  0  0  0
 70 71  1  0  0  0  0
 70 72  1  0  0  0  0
 70 73  1  0  0  0  0
 65 74  1  0  0  0  0
 63 75  1  0  0  0  0
 74 75  1  0  0  0  0
 74 76  1  0  0  0  0
 76 77  1  0  0  0  0
 76 78  1  0  0  0  0
 76 79  1  0  0  0  0
 74 80  1  0  0  0  0
 80 81  1  0  0  0  0
 80 82  1  0  0  0  0
 80 83  1  0  0  0  0
  4 84  1  0  0  0  0
 14 85  1  0  0  0  0
 19 86  1  0  0  0  0
 20 86  1  0  0  0  0
 86 87  4  0  0  0  0
 86 88  4  0  0  0  0
 87 89  4  0  0  0  0
 87 90  1  0  0  0  0
 88 91  4  0  0  0  0
 88 92  1  0  0  0  0
 89 93  4  0  0  0  0
 91 93  4  0  0  0  0
 91 94  1  0  0  0  0
 93 95  1  0  0  0  0
 95 96  4  0  0  0  0
 95 97  4  0  0  0  0
 96 98  4  0  0  0  0
 96 99  1  0  0  0  0
 97100  4  0  0  0  0
 97101  1  0  0  0  0
 98102  4  0  0  0  0
100102  4  0  0  0  0
 98103  1  0  0  0  0
100104  1  0  0  0  0
102105  1  0  0  0  0
M  END
