
  xtb     01142215043D
 xtb: 6.4.1 (1a32961)
 17 17  0     0  0            999 V2000
   -1.2319   -0.9358   -0.0056 N   0  0  0  0  0  0  0  0  0  0  0  0
   -0.1212   -1.6511   -0.0054 C   0  0  0  0  0  0  0  0  0  0  0  0
    1.1491   -1.0986   -0.0046 C   0  0  0  0  0  0  0  0  0  0  0  0
    1.2735    0.2864   -0.0043 C   0  0  0  0  0  0  0  0  0  0  0  0
    2.6101    0.9592   -0.0033 C   0  0  0  0  0  0  0  0  0  0  0  0
    0.1004    1.0341   -0.0049 C   0  0  0  0  0  0  0  0  0  0  0  0
   -1.1320    0.3917   -0.0054 C   0  0  0  0  0  0  0  0  0  0  0  0
   -2.4203    1.1551   -0.0059 C   0  0  0  0  0  0  0  0  0  0  0  0
   -0.2625   -2.7251   -0.0050 H   0  0  0  0  0  0  0  0  0  0  0  0
    2.0220   -1.7337   -0.0039 H   0  0  0  0  0  0  0  0  0  0  0  0
    3.4135    0.2275   -0.0003 H   0  0  0  0  0  0  0  0  0  0  0  0
    2.7090    1.5953    0.8752 H   0  0  0  0  0  0  0  0  0  0  0  0
    2.7122    1.5915   -0.8842 H   0  0  0  0  0  0  0  0  0  0  0  0
    0.1479    2.1135   -0.0048 H   0  0  0  0  0  0  0  0  0  0  0  0
   -2.2396    2.2260    0.0025 H   0  0  0  0  0  0  0  0  0  0  0  0
   -3.0091    0.8796    0.8666 H   0  0  0  0  0  0  0  0  0  0  0  0
   -3.0011    0.8926   -0.8879 H   0  0  0  0  0  0  0  0  0  0  0  0
  1  2  4  0  0  0  0
  2  3  4  0  0  0  0
  3  4  4  0  0  0  0
  4  5  1  0  0  0  0
  4  6  4  0  0  0  0
  1  7  4  0  0  0  0
  6  7  4  0  0  0  0
  7  8  1  0  0  0  0
  2  9  1  0  0  0  0
  3 10  1  0  0  0  0
  5 11  1  0  0  0  0
  5 12  1  0  0  0  0
  5 13  1  0  0  0  0
  6 14  1  0  0  0  0
  8 15  1  0  0  0  0
  8 16  1  0  0  0  0
  8 17  1  0  0  0  0
M  END
