
  xtb     01142213393D
 xtb: 6.4.1 (1a32961)
 10 10  0     0  0            999 V2000
   -1.1046    0.0098    0.0010 N   0  0  0  0  0  0  0  0  0  0  0  0
   -0.3110    1.1113    0.0012 C   0  0  0  0  0  0  0  0  0  0  0  0
    0.9940    0.6990    0.0005 C   0  0  0  0  0  0  0  0  0  0  0  0
    0.9835   -0.7106    0.0002 C   0  0  0  0  0  0  0  0  0  0  0  0
   -0.3275   -1.1035    0.0003 C   0  0  0  0  0  0  0  0  0  0  0  0
   -2.1105    0.0173    0.0011 H   0  0  0  0  0  0  0  0  0  0  0  0
   -0.7248    2.1006    0.0019 H   0  0  0  0  0  0  0  0  0  0  0  0
    1.8624    1.3291    0.0004 H   0  0  0  0  0  0  0  0  0  0  0  0
    1.8425   -1.3535   -0.0001 H   0  0  0  0  0  0  0  0  0  0  0  0
   -0.7561   -2.0866    0.0002 H   0  0  0  0  0  0  0  0  0  0  0  0
  1  2  4  0  0  0  0
  2  3  2  0  0  0  0
  3  4  4  0  0  0  0
  1  5  4  0  0  0  0
  4  5  2  0  0  0  0
  1  6  1  0  0  0  0
  2  7  1  0  0  0  0
  3  8  1  0  0  0  0
  4  9  1  0  0  0  0
  5 10  1  0  0  0  0
M  END
