
  xtb     01142215073D
 xtb: 6.4.1 (1a32961)
 17 17  0     0  0            999 V2000
   -0.8169   -1.0527    0.4796 S   0  0  0  0  0  0  0  0  0  0  0  0
    0.2736    0.2492    0.1641 C   0  0  0  0  0  0  0  0  0  0  0  0
    1.9627    0.0282    0.3076 Cl  0  0  0  0  0  0  0  0  0  0  0  0
   -0.3617    1.4066   -0.1923 C   0  0  0  0  0  0  0  0  0  0  0  0
   -1.7553    1.2512   -0.2176 C   0  0  0  0  0  0  0  0  0  0  0  0
   -2.1699   -0.0143    0.1177 C   0  0  0  0  0  0  0  0  0  0  0  0
   -3.5097   -0.5855    0.2070 C   0  0  0  0  0  0  0  0  0  0  0  0
   -3.6768   -1.7449    0.5398 O   0  0  0  0  0  0  0  0  0  0  0  0
   -4.6483    0.3492   -0.1379 C   0  0  0  0  0  0  0  0  0  0  0  0
   -6.0039   -0.3412   -0.0557 C   0  0  0  0  0  0  0  0  0  0  0  0
    0.1528    2.3199   -0.4253 H   0  0  0  0  0  0  0  0  0  0  0  0
   -2.4269    2.0490   -0.4746 H   0  0  0  0  0  0  0  0  0  0  0  0
   -4.4789    0.7335   -1.1455 H   0  0  0  0  0  0  0  0  0  0  0  0
   -4.6113    1.1937    0.5533 H   0  0  0  0  0  0  0  0  0  0  0  0
   -6.0424   -1.1807   -0.7456 H   0  0  0  0  0  0  0  0  0  0  0  0
   -6.7980    0.3573   -0.3050 H   0  0  0  0  0  0  0  0  0  0  0  0
   -6.1720   -0.7245    0.9476 H   0  0  0  0  0  0  0  0  0  0  0  0
  1  2  1  0  0  0  0
  2  3  1  0  0  0  0
  2  4  2  0  0  0  0
  4  5  4  0  0  0  0
  1  6  1  0  0  0  0
  5  6  2  0  0  0  0
  6  7  1  0  0  0  0
  7  8  2  0  0  0  0
  7  9  1  0  0  0  0
  9 10  1  0  0  0  0
  4 11  1  0  0  0  0
  5 12  1  0  0  0  0
  9 13  1  0  0  0  0
  9 14  1  0  0  0  0
 10 15  1  0  0  0  0
 10 16  1  0  0  0  0
 10 17  1  0  0  0  0
M  END
