   33
Created with kallisto
C     -3.0104    1.1421   -0.0000
C     -1.6482    1.4471    0.0009
C     -3.4280   -0.1811    0.0036
C     -0.6888    0.4085    0.0082
H     -1.3294    2.4859   -0.0067
C     -2.4975   -1.2239    0.0135
H     -4.4904   -0.4137   -0.0015
C      0.7327    0.4018    0.0025
C     -1.1191   -0.9181    0.0203
H     -2.8567   -2.2495    0.0150
C      1.1599   -0.9309    0.0124
C      1.6915    1.4406   -0.0097
N      0.0155   -1.7506    0.0425
C      2.5405   -1.2300    0.0020
C      3.0531    1.1379   -0.0127
H      1.3705    2.4789   -0.0127
C     -0.0459   -3.1696    0.0943
C      3.4697   -0.1841   -0.0089
H      2.9128   -2.2487    0.0084
H      3.7856    1.9406   -0.0164
O     -1.1094   -3.7696    0.1331
O      1.1886   -3.7372    0.0974
H      4.5329   -0.4141   -0.0098
C      1.2115   -5.1771    0.1495
C      0.9585   -5.7592   -1.2382
C      2.5904   -5.6015    0.6439
H      0.4606   -5.5399    0.8624
H      1.6811   -5.3676   -1.9627
H     -0.0354   -5.4905   -1.6090
H      1.0325   -6.8513   -1.2248
H      3.3782   -5.2235   -0.0172
H      2.6727   -6.6921    0.6957
H      2.7880   -5.1900    1.6391
