   12
Created with kallisto
C     -0.5953   -1.2424    0.0002
C      0.8009   -1.1652   -0.0160
C     -1.3542   -0.0726   -0.0015
C      1.4351    0.0829   -0.0409
H      1.3864   -2.0832   -0.0203
C     -0.7298    1.1744   -0.0020
Cl    -3.0711   -0.1679   -0.0189
C      0.6660    1.2526   -0.0226
C      2.8656    0.1627   -0.1104
H     -1.3221    2.0863    0.0037
H      1.1459    2.2301   -0.0343
N      4.0211    0.2272   -0.1816
