
  xtb     01142213363D
 xtb: 6.4.1 (1a32961)
105113  0     0  0            999 V2000
   -0.9090   -2.0478   -0.3784 N   0  0  0  0  0  0  0  0  0  0  0  0
   -2.1698   -1.5973   -0.5173 C   0  0  0  0  0  0  0  0  0  0  0  0
   -3.0164   -2.1196   -1.5033 C   0  0  0  0  0  0  0  0  0  0  0  0
   -2.5599   -3.1111   -2.3437 C   0  0  0  0  0  0  0  0  0  0  0  0
   -1.2555   -3.5723   -2.1834 C   0  0  0  0  0  0  0  0  0  0  0  0
   -0.4799   -3.0075   -1.1925 C   0  0  0  0  0  0  0  0  0  0  0  0
    0.5386   -3.3315   -1.0312 H   0  0  0  0  0  0  0  0  0  0  0  0
   -0.8574   -4.3480   -2.8170 H   0  0  0  0  0  0  0  0  0  0  0  0
   -4.0196   -1.7441   -1.6215 H   0  0  0  0  0  0  0  0  0  0  0  0
   -2.5802   -0.5368    0.3951 C   0  0  0  0  0  0  0  0  0  0  0  0
   -1.6240   -0.0299    1.2016 N   0  0  0  0  0  0  0  0  0  0  0  0
   -1.9519    0.9422    2.0488 C   0  0  0  0  0  0  0  0  0  0  0  0
   -3.2247    1.4649    2.1536 C   0  0  0  0  0  0  0  0  0  0  0  0
   -4.2244    0.9498    1.3320 C   0  0  0  0  0  0  0  0  0  0  0  0
   -3.8946   -0.0551    0.4483 C   0  0  0  0  0  0  0  0  0  0  0  0
   -4.6568   -0.4736   -0.1881 H   0  0  0  0  0  0  0  0  0  0  0  0
   -3.4355    2.2466    2.8653 H   0  0  0  0  0  0  0  0  0  0  0  0
   -1.1422    1.3109    2.6591 H   0  0  0  0  0  0  0  0  0  0  0  0
    0.4215   -0.8165    0.9133 Ir  0  0  0  0  0  0  0  0  0  0  0  0
    0.8726   -2.2303    1.5405 H   0  0  0  0  0  0  0  0  0  0  0  0
    0.3459    0.6096   -0.6099 B   0  0  0  0  0  0  0  0  0  0  0  0
   -0.3617    0.3223   -1.7660 O   0  0  0  0  0  0  0  0  0  0  0  0
   -0.5056    1.5040   -2.5598 C   0  0  0  0  0  0  0  0  0  0  0  0
   -0.3480    1.1561   -4.0377 C   0  0  0  0  0  0  0  0  0  0  0  0
    0.5645    0.5934   -4.2048 H   0  0  0  0  0  0  0  0  0  0  0  0
   -0.3331    2.0634   -4.6363 H   0  0  0  0  0  0  0  0  0  0  0  0
   -1.1885    0.5414   -4.3516 H   0  0  0  0  0  0  0  0  0  0  0  0
   -1.9241    2.0388   -2.3133 C   0  0  0  0  0  0  0  0  0  0  0  0
   -2.1240    2.9180   -2.9187 H   0  0  0  0  0  0  0  0  0  0  0  0
   -2.6397    1.2603   -2.5715 H   0  0  0  0  0  0  0  0  0  0  0  0
   -2.0541    2.2799   -1.2600 H   0  0  0  0  0  0  0  0  0  0  0  0
    0.6031    2.4400   -1.9777 C   0  0  0  0  0  0  0  0  0  0  0  0
    0.7941    1.9100   -0.6590 O   0  0  0  0  0  0  0  0  0  0  0  0
    1.9422    2.2887   -2.7096 C   0  0  0  0  0  0  0  0  0  0  0  0
    2.2371    1.2420   -2.6992 H   0  0  0  0  0  0  0  0  0  0  0  0
    1.8830    2.6602   -3.7286 H   0  0  0  0  0  0  0  0  0  0  0  0
    2.6994    2.8519   -2.1692 H   0  0  0  0  0  0  0  0  0  0  0  0
    0.2254    3.9177   -1.8994 C   0  0  0  0  0  0  0  0  0  0  0  0
   -0.6145    4.0744   -1.2298 H   0  0  0  0  0  0  0  0  0  0  0  0
    1.0728    4.4825   -1.5186 H   0  0  0  0  0  0  0  0  0  0  0  0
   -0.0262    4.2899   -2.8893 H   0  0  0  0  0  0  0  0  0  0  0  0
    1.5418    0.6812    1.8343 B   0  0  0  0  0  0  0  0  0  0  0  0
    2.9036    0.8659    1.8255 O   0  0  0  0  0  0  0  0  0  0  0  0
    3.2304    2.1571    2.3599 C   0  0  0  0  0  0  0  0  0  0  0  0
    4.4912    2.0603    3.2174 C   0  0  0  0  0  0  0  0  0  0  0  0
    4.3948    1.2845    3.9694 H   0  0  0  0  0  0  0  0  0  0  0  0
    5.3369    1.8116    2.5815 H   0  0  0  0  0  0  0  0  0  0  0  0
    4.6862    3.0138    3.7007 H   0  0  0  0  0  0  0  0  0  0  0  0
    3.4965    3.0713    1.1580 C   0  0  0  0  0  0  0  0  0  0  0  0
    3.7345    4.0839    1.4701 H   0  0  0  0  0  0  0  0  0  0  0  0
    4.3354    2.6683    0.5950 H   0  0  0  0  0  0  0  0  0  0  0  0
    2.6242    3.0636    0.5096 H   0  0  0  0  0  0  0  0  0  0  0  0
    1.9295    2.5456    3.1422 C   0  0  0  0  0  0  0  0  0  0  0  0
    0.9407    1.6896    2.5550 O   0  0  0  0  0  0  0  0  0  0  0  0
    1.4947    4.0013    2.9822 C   0  0  0  0  0  0  0  0  0  0  0  0
    1.2507    4.2147    1.9468 H   0  0  0  0  0  0  0  0  0  0  0  0
    0.6070    4.1764    3.5851 H   0  0  0  0  0  0  0  0  0  0  0  0
    2.2833    4.6688    3.3189 H   0  0  0  0  0  0  0  0  0  0  0  0
    1.9976    2.1980    4.6348 C   0  0  0  0  0  0  0  0  0  0  0  0
    2.2557    1.1503    4.7602 H   0  0  0  0  0  0  0  0  0  0  0  0
    2.7188    2.8247    5.1504 H   0  0  0  0  0  0  0  0  0  0  0  0
    1.0153    2.3537    5.0749 H   0  0  0  0  0  0  0  0  0  0  0  0
    2.2782   -1.3309    0.1741 B   0  0  0  0  0  0  0  0  0  0  0  0
    3.1607   -2.2143    0.7571 O   0  0  0  0  0  0  0  0  0  0  0  0
    4.4324   -2.1613    0.0986 C   0  0  0  0  0  0  0  0  0  0  0  0
    5.3589   -1.3445    1.0059 C   0  0  0  0  0  0  0  0  0  0  0  0
    4.8943   -0.3841    1.2088 H   0  0  0  0  0  0  0  0  0  0  0  0
    5.4659   -1.8710    1.9509 H   0  0  0  0  0  0  0  0  0  0  0  0
    6.3402   -1.2130    0.5610 H   0  0  0  0  0  0  0  0  0  0  0  0
    4.9890   -3.5781   -0.0458 C   0  0  0  0  0  0  0  0  0  0  0  0
    5.1605   -3.9879    0.9459 H   0  0  0  0  0  0  0  0  0  0  0  0
    5.9311   -3.5567   -0.5865 H   0  0  0  0  0  0  0  0  0  0  0  0
    4.2898   -4.2284   -0.5606 H   0  0  0  0  0  0  0  0  0  0  0  0
    4.0970   -1.4378   -1.2552 C   0  0  0  0  0  0  0  0  0  0  0  0
    2.8129   -0.8499   -0.9987 O   0  0  0  0  0  0  0  0  0  0  0  0
    5.0754   -0.3315   -1.6480 C   0  0  0  0  0  0  0  0  0  0  0  0
    6.0797   -0.7318   -1.7545 H   0  0  0  0  0  0  0  0  0  0  0  0
    4.7646    0.0960   -2.5981 H   0  0  0  0  0  0  0  0  0  0  0  0
    5.0685    0.4574   -0.9040 H   0  0  0  0  0  0  0  0  0  0  0  0
    3.9304   -2.4018   -2.4375 C   0  0  0  0  0  0  0  0  0  0  0  0
    3.1999   -3.1697   -2.1987 H   0  0  0  0  0  0  0  0  0  0  0  0
    3.5603   -1.8418   -3.2928 H   0  0  0  0  0  0  0  0  0  0  0  0
    4.8770   -2.8640   -2.7006 H   0  0  0  0  0  0  0  0  0  0  0  0
   -3.2003   -3.5179   -3.1115 H   0  0  0  0  0  0  0  0  0  0  0  0
   -5.2357    1.3239    1.3872 H   0  0  0  0  0  0  0  0  0  0  0  0
    0.2359   -1.6814    2.9603 C   0  0  0  0  0  0  0  0  0  0  0  0
   -1.0438   -2.0737    3.3311 C   0  0  0  0  0  0  0  0  0  0  0  0
    1.1835   -1.4800    3.9614 C   0  0  0  0  0  0  0  0  0  0  0  0
   -1.4174   -2.1524    4.6734 C   0  0  0  0  0  0  0  0  0  0  0  0
   -1.7679   -2.3474    2.5762 H   0  0  0  0  0  0  0  0  0  0  0  0
    0.8321   -1.5861    5.2978 C   0  0  0  0  0  0  0  0  0  0  0  0
    2.1999   -1.2485    3.6812 H   0  0  0  0  0  0  0  0  0  0  0  0
   -0.4643   -1.9039    5.6590 C   0  0  0  0  0  0  0  0  0  0  0  0
   -2.7875   -2.5089    5.0622 C   0  0  0  0  0  0  0  0  0  0  0  0
    1.5747   -1.4223    6.0661 H   0  0  0  0  0  0  0  0  0  0  0  0
   -0.7551   -1.9769    6.6953 H   0  0  0  0  0  0  0  0  0  0  0  0
   -2.9354   -3.1172    6.2402 N   0  0  0  0  0  0  0  0  0  0  0  0
   -3.8890   -2.2109    4.2532 C   0  0  0  0  0  0  0  0  0  0  0  0
   -4.1460   -3.4605    6.6370 C   0  0  0  0  0  0  0  0  0  0  0  0
   -5.1531   -2.5773    4.6763 C   0  0  0  0  0  0  0  0  0  0  0  0
   -3.7523   -1.6822    3.3222 H   0  0  0  0  0  0  0  0  0  0  0  0
   -5.2936   -3.2242    5.8957 C   0  0  0  0  0  0  0  0  0  0  0  0
   -4.1928   -3.9505    7.6018 H   0  0  0  0  0  0  0  0  0  0  0  0
   -6.0195   -2.3575    4.0686 H   0  0  0  0  0  0  0  0  0  0  0  0
   -6.2614   -3.5284    6.2619 H   0  0  0  0  0  0  0  0  0  0  0  0
  1  2  4  0  0  0  0
  2  3  4  0  0  0  0
  3  4  4  0  0  0  0
  4  5  4  0  0  0  0
  1  6  4  0  0  0  0
  5  6  4  0  0  0  0
  6  7  1  0  0  0  0
  5  8  1  0  0  0  0
  3  9  1  0  0  0  0
  2 10  1  0  0  0  0
 10 11  4  0  0  0  0
 11 12  4  0  0  0  0
 12 13  4  0  0  0  0
 13 14  4  0  0  0  0
 10 15  4  0  0  0  0
 14 15  4  0  0  0  0
 15 16  1  0  0  0  0
 13 17  1  0  0  0  0
 12 18  1  0  0  0  0
  1 19  1  0  0  0  0
 11 19  1  0  0  0  0
 19 20  1  0  0  0  0
 19 21  1  0  0  0  0
 21 22  1  0  0  0  0
 22 23  1  0  0  0  0
 23 24  1  0  0  0  0
 24 25  1  0  0  0  0
 24 26  1  0  0  0  0
 24 27  1  0  0  0  0
 23 28  1  0  0  0  0
 28 29  1  0  0  0  0
 28 30  1  0  0  0  0
 28 31  1  0  0  0  0
 23 32  1  0  0  0  0
 21 33  1  0  0  0  0
 32 33  1  0  0  0  0
 32 34  1  0  0  0  0
 34 35  1  0  0  0  0
 34 36  1  0  0  0  0
 34 37  1  0  0  0  0
 32 38  1  0  0  0  0
 38 39  1  0  0  0  0
 38 40  1  0  0  0  0
 38 41  1  0  0  0  0
 19 42  1  0  0  0  0
 42 43  1  0  0  0  0
 43 44  1  0  0  0  0
 44 45  1  0  0  0  0
 45 46  1  0  0  0  0
 45 47  1  0  0  0  0
 45 48  1  0  0  0  0
 44 49  1  0  0  0  0
 49 50  1  0  0  0  0
 49 51  1  0  0  0  0
 49 52  1  0  0  0  0
 44 53  1  0  0  0  0
 42 54  1  0  0  0  0
 53 54  1  0  0  0  0
 53 55  1  0  0  0  0
 55 56  1  0  0  0  0
 55 57  1  0  0  0  0
 55 58  1  0  0  0  0
 53 59  1  0  0  0  0
 59 60  1  0  0  0  0
 59 61  1  0  0  0  0
 59 62  1  0  0  0  0
 19 63  1  0  0  0  0
 63 64  1  0  0  0  0
 64 65  1  0  0  0  0
 65 66  1  0  0  0  0
 66 67  1  0  0  0  0
 66 68  1  0  0  0  0
 66 69  1  0  0  0  0
 65 70  1  0  0  0  0
 70 71  1  0  0  0  0
 70 72  1  0  0  0  0
 70 73  1  0  0  0  0
 65 74  1  0  0  0  0
 63 75  1  0  0  0  0
 74 75  1  0  0  0  0
 74 76  1  0  0  0  0
 76 77  1  0  0  0  0
 76 78  1  0  0  0  0
 76 79  1  0  0  0  0
 74 80  1  0  0  0  0
 80 81  1  0  0  0  0
 80 82  1  0  0  0  0
 80 83  1  0  0  0  0
  4 84  1  0  0  0  0
 14 85  1  0  0  0  0
 19 86  1  0  0  0  0
 20 86  1  0  0  0  0
 86 87  4  0  0  0  0
 86 88  4  0  0  0  0
 87 89  4  0  0  0  0
 87 90  1  0  0  0  0
 88 91  4  0  0  0  0
 88 92  1  0  0  0  0
 89 93  4  0  0  0  0
 91 93  4  0  0  0  0
 89 94  1  0  0  0  0
 91 95  1  0  0  0  0
 93 96  1  0  0  0  0
 94 97  4  0  0  0  0
 94 98  4  0  0  0  0
 97 99  4  0  0  0  0
 98100  4  0  0  0  0
 98101  1  0  0  0  0
 99102  4  0  0  0  0
100102  4  0  0  0  0
 99103  1  0  0  0  0
100104  1  0  0  0  0
102105  1  0  0  0  0
M  END
