   11
Created with kallisto
C     -1.3336    1.3910   -0.0354
C     -0.1143    0.7057   -0.0199
C     -2.5374    0.6836   -0.0130
Cl     1.3359    1.6446   -0.0414
C     -0.1034   -0.6935    0.0144
C     -2.5264   -0.7094    0.0261
H     -3.4834    1.2208   -0.0252
C     -1.3115   -1.3977    0.0389
Cl     1.3617   -1.6095    0.0268
H     -3.4636   -1.2611    0.0464
H     -1.3130   -2.4849    0.0676
