
  xtb     01142213453D
 xtb: 6.4.1 (1a32961)
101108  0     0  0            999 V2000
   -0.9195   -1.9650   -0.4342 N   0  0  0  0  0  0  0  0  0  0  0  0
   -2.1291   -1.4093   -0.6503 C   0  0  0  0  0  0  0  0  0  0  0  0
   -2.9391   -1.8356   -1.7094 C   0  0  0  0  0  0  0  0  0  0  0  0
   -2.5039   -2.8421   -2.5434 C   0  0  0  0  0  0  0  0  0  0  0  0
   -1.2565   -3.4138   -2.3028 C   0  0  0  0  0  0  0  0  0  0  0  0
   -0.5114   -2.9383   -1.2448 C   0  0  0  0  0  0  0  0  0  0  0  0
    0.4625   -3.3505   -1.0209 H   0  0  0  0  0  0  0  0  0  0  0  0
   -0.8772   -4.2056   -2.9282 H   0  0  0  0  0  0  0  0  0  0  0  0
   -3.8971   -1.3749   -1.8868 H   0  0  0  0  0  0  0  0  0  0  0  0
   -2.5196   -0.3498    0.2707 C   0  0  0  0  0  0  0  0  0  0  0  0
   -1.5842    0.0457    1.1618 N   0  0  0  0  0  0  0  0  0  0  0  0
   -1.8984    1.0011    2.0341 C   0  0  0  0  0  0  0  0  0  0  0  0
   -3.1307    1.6206    2.0751 C   0  0  0  0  0  0  0  0  0  0  0  0
   -4.1032    1.2292    1.1579 C   0  0  0  0  0  0  0  0  0  0  0  0
   -3.7908    0.2372    0.2536 C   0  0  0  0  0  0  0  0  0  0  0  0
   -4.5337   -0.0878   -0.4557 H   0  0  0  0  0  0  0  0  0  0  0  0
   -3.3309    2.3868    2.8067 H   0  0  0  0  0  0  0  0  0  0  0  0
   -1.1096    1.2797    2.7157 H   0  0  0  0  0  0  0  0  0  0  0  0
    0.4215   -0.8165    0.9133 Ir  0  0  0  0  0  0  0  0  0  0  0  0
    0.8726   -2.2303    1.5405 H   0  0  0  0  0  0  0  0  0  0  0  0
    0.4565    0.6026   -0.6187 B   0  0  0  0  0  0  0  0  0  0  0  0
   -0.1725    0.3200   -1.8197 O   0  0  0  0  0  0  0  0  0  0  0  0
   -0.2439    1.4982   -2.6269 C   0  0  0  0  0  0  0  0  0  0  0  0
    0.0200    1.1373   -4.0867 C   0  0  0  0  0  0  0  0  0  0  0  0
    0.9438    0.5765   -4.1831 H   0  0  0  0  0  0  0  0  0  0  0  0
    0.0739    2.0388   -4.6918 H   0  0  0  0  0  0  0  0  0  0  0  0
   -0.7946    0.5163   -4.4522 H   0  0  0  0  0  0  0  0  0  0  0  0
   -1.6723    2.0465   -2.4929 C   0  0  0  0  0  0  0  0  0  0  0  0
   -1.8170    2.9238   -3.1162 H   0  0  0  0  0  0  0  0  0  0  0  0
   -2.3707    1.2712   -2.8020 H   0  0  0  0  0  0  0  0  0  0  0  0
   -1.8818    2.2943   -1.4541 H   0  0  0  0  0  0  0  0  0  0  0  0
    0.8274    2.4279   -1.9681 C   0  0  0  0  0  0  0  0  0  0  0  0
    0.9257    1.8961   -0.6402 O   0  0  0  0  0  0  0  0  0  0  0  0
    2.2114    2.2735   -2.6107 C   0  0  0  0  0  0  0  0  0  0  0  0
    2.5076    1.2281   -2.5667 H   0  0  0  0  0  0  0  0  0  0  0  0
    2.2163    2.6312   -3.6364 H   0  0  0  0  0  0  0  0  0  0  0  0
    2.9322    2.8472   -2.0325 H   0  0  0  0  0  0  0  0  0  0  0  0
    0.4521    3.9076   -1.9126 C   0  0  0  0  0  0  0  0  0  0  0  0
   -0.4329    4.0678   -1.3045 H   0  0  0  0  0  0  0  0  0  0  0  0
    1.2727    4.4669   -1.4696 H   0  0  0  0  0  0  0  0  0  0  0  0
    0.2749    4.2839   -2.9170 H   0  0  0  0  0  0  0  0  0  0  0  0
    1.5780    0.6406    1.8627 B   0  0  0  0  0  0  0  0  0  0  0  0
    2.9481    0.7293    1.9345 O   0  0  0  0  0  0  0  0  0  0  0  0
    3.3337    2.0222    2.4202 C   0  0  0  0  0  0  0  0  0  0  0  0
    4.5245    1.8855    3.3682 C   0  0  0  0  0  0  0  0  0  0  0  0
    4.3160    1.1752    4.1617 H   0  0  0  0  0  0  0  0  0  0  0  0
    5.3847    1.5245    2.8098 H   0  0  0  0  0  0  0  0  0  0  0  0
    4.7697    2.8514    3.8015 H   0  0  0  0  0  0  0  0  0  0  0  0
    3.7491    2.8398    1.1913 C   0  0  0  0  0  0  0  0  0  0  0  0
    4.0380    3.8512    1.4614 H   0  0  0  0  0  0  0  0  0  0  0  0
    4.5936    2.3461    0.7157 H   0  0  0  0  0  0  0  0  0  0  0  0
    2.9252    2.8510    0.4826 H   0  0  0  0  0  0  0  0  0  0  0  0
    2.0156    2.5516    3.0853 C   0  0  0  0  0  0  0  0  0  0  0  0
    1.0070    1.7177    2.5018 O   0  0  0  0  0  0  0  0  0  0  0  0
    1.6890    4.0134    2.7824 C   0  0  0  0  0  0  0  0  0  0  0  0
    1.5237    4.1515    1.7192 H   0  0  0  0  0  0  0  0  0  0  0  0
    0.7783    4.2908    3.3075 H   0  0  0  0  0  0  0  0  0  0  0  0
    2.4968    4.6578    3.1181 H   0  0  0  0  0  0  0  0  0  0  0  0
    1.9701    2.3303    4.6030 C   0  0  0  0  0  0  0  0  0  0  0  0
    2.1365    1.2823    4.8381 H   0  0  0  0  0  0  0  0  0  0  0  0
    2.7103    2.9416    5.1099 H   0  0  0  0  0  0  0  0  0  0  0  0
    0.9821    2.6012    4.9681 H   0  0  0  0  0  0  0  0  0  0  0  0
    2.2782   -1.3309    0.1741 B   0  0  0  0  0  0  0  0  0  0  0  0
    3.0786   -2.3406    0.6693 O   0  0  0  0  0  0  0  0  0  0  0  0
    4.3694   -2.3037    0.0495 C   0  0  0  0  0  0  0  0  0  0  0  0
    5.3130   -1.6250    1.0484 C   0  0  0  0  0  0  0  0  0  0  0  0
    4.9045   -0.6538    1.3135 H   0  0  0  0  0  0  0  0  0  0  0  0
    5.3507   -2.2288    1.9519 H   0  0  0  0  0  0  0  0  0  0  0  0
    6.3166   -1.5249    0.6466 H   0  0  0  0  0  0  0  0  0  0  0  0
    4.8507   -3.7304   -0.2139 C   0  0  0  0  0  0  0  0  0  0  0  0
    4.9797   -4.2375    0.7388 H   0  0  0  0  0  0  0  0  0  0  0  0
    5.8033   -3.7126   -0.7358 H   0  0  0  0  0  0  0  0  0  0  0  0
    4.1278   -4.2907   -0.7976 H   0  0  0  0  0  0  0  0  0  0  0  0
    4.1111   -1.4409   -1.2352 C   0  0  0  0  0  0  0  0  0  0  0  0
    2.8847   -0.7635   -0.9243 O   0  0  0  0  0  0  0  0  0  0  0  0
    5.1948   -0.4082   -1.5401 C   0  0  0  0  0  0  0  0  0  0  0  0
    6.1561   -0.8973   -1.6718 H   0  0  0  0  0  0  0  0  0  0  0  0
    4.9396    0.1177   -2.4568 H   0  0  0  0  0  0  0  0  0  0  0  0
    5.2588    0.3200   -0.7391 H   0  0  0  0  0  0  0  0  0  0  0  0
    3.8558   -2.2860   -2.4911 C   0  0  0  0  0  0  0  0  0  0  0  0
    3.0613   -3.0034   -2.3048 H   0  0  0  0  0  0  0  0  0  0  0  0
    3.5306   -1.6272   -3.2931 H   0  0  0  0  0  0  0  0  0  0  0  0
    4.7571   -2.8050   -2.8031 H   0  0  0  0  0  0  0  0  0  0  0  0
   -3.1169   -3.1784   -3.3658 H   0  0  0  0  0  0  0  0  0  0  0  0
   -5.0806    1.6876    1.1567 H   0  0  0  0  0  0  0  0  0  0  0  0
    0.2359   -1.6814    2.9603 C   0  0  0  0  0  0  0  0  0  0  0  0
   -0.9425   -2.1474    3.5329 C   0  0  0  0  0  0  0  0  0  0  0  0
    1.1200   -1.4323    4.0216 C   0  0  0  0  0  0  0  0  0  0  0  0
   -0.8194   -2.1285    4.8875 N   0  0  0  0  0  0  0  0  0  0  0  0
   -2.1882   -2.6481    2.8931 C   0  0  0  0  0  0  0  0  0  0  0  0
    0.4453   -1.6959    5.2080 C   0  0  0  0  0  0  0  0  0  0  0  0
    2.1372   -1.1074    3.9355 H   0  0  0  0  0  0  0  0  0  0  0  0
   -1.8308   -2.5123    5.8340 C   0  0  0  0  0  0  0  0  0  0  0  0
   -2.0300   -2.7456    1.8241 H   0  0  0  0  0  0  0  0  0  0  0  0
   -3.0221   -1.9648    3.0615 H   0  0  0  0  0  0  0  0  0  0  0  0
   -2.4629   -3.6223    3.2975 H   0  0  0  0  0  0  0  0  0  0  0  0
    0.9042   -1.5697    6.5123 C   0  0  0  0  0  0  0  0  0  0  0  0
   -1.4744   -2.2995    6.8408 H   0  0  0  0  0  0  0  0  0  0  0  0
   -2.0468   -3.5807    5.7555 H   0  0  0  0  0  0  0  0  0  0  0  0
   -2.7508   -1.9533    5.6542 H   0  0  0  0  0  0  0  0  0  0  0  0
    1.3031   -1.4569    7.5891 N   0  0  0  0  0  0  0  0  0  0  0  0
  1  2  4  0  0  0  0
  2  3  4  0  0  0  0
  3  4  4  0  0  0  0
  4  5  4  0  0  0  0
  1  6  4  0  0  0  0
  5  6  4  0  0  0  0
  6  7  1  0  0  0  0
  5  8  1  0  0  0  0
  3  9  1  0  0  0  0
  2 10  1  0  0  0  0
 10 11  4  0  0  0  0
 11 12  4  0  0  0  0
 12 13  4  0  0  0  0
 13 14  4  0  0  0  0
 10 15  4  0  0  0  0
 14 15  4  0  0  0  0
 15 16  1  0  0  0  0
 13 17  1  0  0  0  0
 12 18  1  0  0  0  0
  1 19  1  0  0  0  0
 11 19  1  0  0  0  0
 19 20  1  0  0  0  0
 19 21  1  0  0  0  0
 21 22  1  0  0  0  0
 22 23  1  0  0  0  0
 23 24  1  0  0  0  0
 24 25  1  0  0  0  0
 24 26  1  0  0  0  0
 24 27  1  0  0  0  0
 23 28  1  0  0  0  0
 28 29  1  0  0  0  0
 28 30  1  0  0  0  0
 28 31  1  0  0  0  0
 23 32  1  0  0  0  0
 21 33  1  0  0  0  0
 32 33  1  0  0  0  0
 32 34  1  0  0  0  0
 34 35  1  0  0  0  0
 34 36  1  0  0  0  0
 34 37  1  0  0  0  0
 32 38  1  0  0  0  0
 38 39  1  0  0  0  0
 38 40  1  0  0  0  0
 38 41  1  0  0  0  0
 19 42  1  0  0  0  0
 42 43  1  0  0  0  0
 43 44  1  0  0  0  0
 44 45  1  0  0  0  0
 45 46  1  0  0  0  0
 45 47  1  0  0  0  0
 45 48  1  0  0  0  0
 44 49  1  0  0  0  0
 49 50  1  0  0  0  0
 49 51  1  0  0  0  0
 49 52  1  0  0  0  0
 44 53  1  0  0  0  0
 42 54  1  0  0  0  0
 53 54  1  0  0  0  0
 53 55  1  0  0  0  0
 55 56  1  0  0  0  0
 55 57  1  0  0  0  0
 55 58  1  0  0  0  0
 53 59  1  0  0  0  0
 59 60  1  0  0  0  0
 59 61  1  0  0  0  0
 59 62  1  0  0  0  0
 19 63  1  0  0  0  0
 63 64  1  0  0  0  0
 64 65  1  0  0  0  0
 65 66  1  0  0  0  0
 66 67  1  0  0  0  0
 66 68  1  0  0  0  0
 66 69  1  0  0  0  0
 65 70  1  0  0  0  0
 70 71  1  0  0  0  0
 70 72  1  0  0  0  0
 70 73  1  0  0  0  0
 65 74  1  0  0  0  0
 63 75  1  0  0  0  0
 74 75  1  0  0  0  0
 74 76  1  0  0  0  0
 76 77  1  0  0  0  0
 76 78  1  0  0  0  0
 76 79  1  0  0  0  0
 74 80  1  0  0  0  0
 80 81  1  0  0  0  0
 80 82  1  0  0  0  0
 80 83  1  0  0  0  0
  4 84  1  0  0  0  0
 14 85  1  0  0  0  0
 19 86  1  0  0  0  0
 20 86  1  0  0  0  0
 86 87  4  0  0  0  0
 86 88  4  0  0  0  0
 87 89  4  0  0  0  0
 87 90  1  0  0  0  0
 88 91  4  0  0  0  0
 89 91  1  0  0  0  0
 88 92  1  0  0  0  0
 89 93  1  0  0  0  0
 90 94  1  0  0  0  0
 90 95  1  0  0  0  0
 90 96  1  0  0  0  0
 91 97  1  0  0  0  0
 93 98  1  0  0  0  0
 93 99  1  0  0  0  0
 93100  1  0  0  0  0
 97101  3  0  0  0  0
M  END
