    8
Created with kallisto
C      0.1041    1.2321   -0.0049
S     -1.0832   -0.0009   -0.0100
C      1.3830    0.7196    0.0014
C      0.1120   -1.2262   -0.0052
C      1.3875   -0.7056    0.0015
H      2.2721    1.3379    0.0054
H     -0.1791   -2.2675   -0.0072
H      2.2807   -1.3182    0.0059
