
  xtb     01142214233D
 xtb: 6.4.1 (1a32961)
 45 46  0     0  0            999 V2000
   -1.7740   -0.6625    2.3100 C   0  0  0  0  0  0  0  0  0  0  0  0
   -2.1410    0.6243    2.6320 C   0  0  0  0  0  0  0  0  0  0  0  0
   -1.3409    1.7180    2.2861 C   0  0  0  0  0  0  0  0  0  0  0  0
   -0.1512    1.5488    1.6114 C   0  0  0  0  0  0  0  0  0  0  0  0
    0.2241    0.2518    1.2806 C   0  0  0  0  0  0  0  0  0  0  0  0
    1.3272   -0.2125    0.6270 N   0  0  0  0  0  0  0  0  0  0  0  0
    1.2498   -1.5729    0.5379 C   0  0  0  0  0  0  0  0  0  0  0  0
    0.1055   -2.0227    1.1337 C   0  0  0  0  0  0  0  0  0  0  0  0
   -0.3649   -3.4371    1.2147 C   0  0  0  0  0  0  0  0  0  0  0  0
   -1.1316   -3.8350   -0.0652 C   0  0  0  0  0  0  0  0  0  0  0  0
   -2.2538   -2.9615   -0.2902 N   0  0  0  0  0  0  0  0  0  0  0  0
   -2.5922   -2.5333   -1.5276 C   0  0  0  0  0  0  0  0  0  0  0  0
   -1.8971   -2.6923   -2.5107 O   0  0  0  0  0  0  0  0  0  0  0  0
   -3.7669   -1.8938   -1.4794 O   0  0  0  0  0  0  0  0  0  0  0  0
   -4.3543   -1.2876   -2.6658 C   0  0  0  0  0  0  0  0  0  0  0  0
   -4.6417   -2.3594   -3.7173 C   0  0  0  0  0  0  0  0  0  0  0  0
   -5.6589   -0.6752   -2.1532 C   0  0  0  0  0  0  0  0  0  0  0  0
   -3.4334   -0.2014   -3.2206 C   0  0  0  0  0  0  0  0  0  0  0  0
   -1.6014   -5.2823    0.0479 C   0  0  0  0  0  0  0  0  0  0  0  0
   -2.7512   -5.6068    0.2278 O   0  0  0  0  0  0  0  0  0  0  0  0
   -0.5854   -6.1262   -0.0605 O   0  0  0  0  0  0  0  0  0  0  0  0
   -0.8477   -7.5292    0.0506 C   0  0  0  0  0  0  0  0  0  0  0  0
   -0.5788   -0.8664    1.6195 C   0  0  0  0  0  0  0  0  0  0  0  0
   -2.3993   -1.4979    2.5889 H   0  0  0  0  0  0  0  0  0  0  0  0
   -3.0656    0.8006    3.1629 H   0  0  0  0  0  0  0  0  0  0  0  0
   -1.6648    2.7126    2.5562 H   0  0  0  0  0  0  0  0  0  0  0  0
    0.4676    2.3940    1.3485 H   0  0  0  0  0  0  0  0  0  0  0  0
    2.0724    0.3541    0.2595 H   0  0  0  0  0  0  0  0  0  0  0  0
    2.0242   -2.1376    0.0554 H   0  0  0  0  0  0  0  0  0  0  0  0
   -1.0266   -3.5595    2.0738 H   0  0  0  0  0  0  0  0  0  0  0  0
    0.4832   -4.1141    1.3217 H   0  0  0  0  0  0  0  0  0  0  0  0
   -0.4739   -3.7464   -0.9358 H   0  0  0  0  0  0  0  0  0  0  0  0
   -2.9552   -2.8975    0.4318 H   0  0  0  0  0  0  0  0  0  0  0  0
   -5.2595   -3.1459   -3.2889 H   0  0  0  0  0  0  0  0  0  0  0  0
   -3.7128   -2.7984   -4.0717 H   0  0  0  0  0  0  0  0  0  0  0  0
   -5.1659   -1.9143   -4.5578 H   0  0  0  0  0  0  0  0  0  0  0  0
   -6.2912   -1.4504   -1.7290 H   0  0  0  0  0  0  0  0  0  0  0  0
   -6.1847   -0.1925   -2.9708 H   0  0  0  0  0  0  0  0  0  0  0  0
   -5.4456    0.0589   -1.3812 H   0  0  0  0  0  0  0  0  0  0  0  0
   -2.4993   -0.6385   -3.5630 H   0  0  0  0  0  0  0  0  0  0  0  0
   -3.2157    0.5337   -2.4491 H   0  0  0  0  0  0  0  0  0  0  0  0
   -3.9191    0.2936   -4.0563 H   0  0  0  0  0  0  0  0  0  0  0  0
   -0.2263   -8.0239   -0.6923 H   0  0  0  0  0  0  0  0  0  0  0  0
   -1.9043   -7.7275   -0.1317 H   0  0  0  0  0  0  0  0  0  0  0  0
   -0.5762   -7.8596    1.0533 H   0  0  0  0  0  0  0  0  0  0  0  0
  1  2  2  0  0  0  0
  2  3  4  0  0  0  0
  3  4  4  0  0  0  0
  4  5  4  0  0  0  0
  5  6  1  0  0  0  0
  6  7  4  0  0  0  0
  7  8  2  0  0  0  0
  8  9  1  0  0  0  0
  9 10  1  0  0  0  0
 10 11  1  0  0  0  0
 11 12  4  0  0  0  0
 12 13  2  0  0  0  0
 12 14  1  0  0  0  0
 14 15  1  0  0  0  0
 15 16  1  0  0  0  0
 15 17  1  0  0  0  0
 15 18  1  0  0  0  0
 10 19  1  0  0  0  0
 19 20  2  0  0  0  0
 19 21  1  0  0  0  0
 21 22  1  0  0  0  0
  1 23  4  0  0  0  0
  5 23  4  0  0  0  0
  8 23  4  0  0  0  0
  1 24  1  0  0  0  0
  2 25  1  0  0  0  0
  3 26  1  0  0  0  0
  4 27  1  0  0  0  0
  6 28  1  0  0  0  0
  7 29  1  0  0  0  0
  9 30  1  0  0  0  0
  9 31  1  0  0  0  0
 10 32  1  0  0  0  0
 11 33  1  0  0  0  0
 16 34  1  0  0  0  0
 16 35  1  0  0  0  0
 16 36  1  0  0  0  0
 17 37  1  0  0  0  0
 17 38  1  0  0  0  0
 17 39  1  0  0  0  0
 18 40  1  0  0  0  0
 18 41  1  0  0  0  0
 18 42  1  0  0  0  0
 22 43  1  0  0  0  0
 22 44  1  0  0  0  0
 22 45  1  0  0  0  0
M  END
