
  xtb     01142215033D
 xtb: 6.4.1 (1a32961)
 98105  0     0  0            999 V2000
   -0.9051   -2.0244   -0.3795 N   0  0  0  0  0  0  0  0  0  0  0  0
   -2.1882   -1.6329   -0.4363 C   0  0  0  0  0  0  0  0  0  0  0  0
   -3.0867   -2.2468   -1.3166 C   0  0  0  0  0  0  0  0  0  0  0  0
   -2.6559   -3.2697   -2.1355 C   0  0  0  0  0  0  0  0  0  0  0  0
   -1.3248   -3.6649   -2.0624 C   0  0  0  0  0  0  0  0  0  0  0  0
   -0.4971   -3.0090   -1.1730 C   0  0  0  0  0  0  0  0  0  0  0  0
    0.5454   -3.2784   -1.0825 H   0  0  0  0  0  0  0  0  0  0  0  0
   -0.9434   -4.4608   -2.6808 H   0  0  0  0  0  0  0  0  0  0  0  0
   -4.1139   -1.9273   -1.3674 H   0  0  0  0  0  0  0  0  0  0  0  0
   -2.5790   -0.5406    0.4546 C   0  0  0  0  0  0  0  0  0  0  0  0
   -1.6073    0.0061    1.2067 N   0  0  0  0  0  0  0  0  0  0  0  0
   -1.9151    1.0033    2.0279 C   0  0  0  0  0  0  0  0  0  0  0  0
   -3.1924    1.5138    2.1616 C   0  0  0  0  0  0  0  0  0  0  0  0
   -4.2083    0.9624    1.3903 C   0  0  0  0  0  0  0  0  0  0  0  0
   -3.8941   -0.0684    0.5289 C   0  0  0  0  0  0  0  0  0  0  0  0
   -4.6714   -0.5067   -0.0738 H   0  0  0  0  0  0  0  0  0  0  0  0
   -3.3876    2.3168    2.8537 H   0  0  0  0  0  0  0  0  0  0  0  0
   -1.0892    1.4097    2.5915 H   0  0  0  0  0  0  0  0  0  0  0  0
    0.4215   -0.8165    0.9133 Ir  0  0  0  0  0  0  0  0  0  0  0  0
    0.8726   -2.2303    1.5405 H   0  0  0  0  0  0  0  0  0  0  0  0
    0.3993    0.6234   -0.5930 B   0  0  0  0  0  0  0  0  0  0  0  0
   -0.3128    0.4009   -1.7558 O   0  0  0  0  0  0  0  0  0  0  0  0
   -0.3800    1.6084   -2.5251 C   0  0  0  0  0  0  0  0  0  0  0  0
   -0.2204    1.2846   -4.0081 C   0  0  0  0  0  0  0  0  0  0  0  0
    0.6615    0.6755   -4.1758 H   0  0  0  0  0  0  0  0  0  0  0  0
   -0.1462    2.2029   -4.5846 H   0  0  0  0  0  0  0  0  0  0  0  0
   -1.0893    0.7264   -4.3478 H   0  0  0  0  0  0  0  0  0  0  0  0
   -1.7703    2.2129   -2.2827 C   0  0  0  0  0  0  0  0  0  0  0  0
   -1.9152    3.1148   -2.8699 H   0  0  0  0  0  0  0  0  0  0  0  0
   -2.5221    1.4797   -2.5674 H   0  0  0  0  0  0  0  0  0  0  0  0
   -1.9008    2.4361   -1.2257 H   0  0  0  0  0  0  0  0  0  0  0  0
    0.7716    2.4692   -1.9083 C   0  0  0  0  0  0  0  0  0  0  0  0
    0.9253    1.8916   -0.6031 O   0  0  0  0  0  0  0  0  0  0  0  0
    2.1077    2.2710   -2.6339 C   0  0  0  0  0  0  0  0  0  0  0  0
    2.3507    1.2115   -2.6495 H   0  0  0  0  0  0  0  0  0  0  0  0
    2.0762    2.6728   -3.6423 H   0  0  0  0  0  0  0  0  0  0  0  0
    2.8867    2.7812   -2.0725 H   0  0  0  0  0  0  0  0  0  0  0  0
    0.4698    3.9610   -1.7857 C   0  0  0  0  0  0  0  0  0  0  0  0
   -0.3639    4.1395   -1.1139 H   0  0  0  0  0  0  0  0  0  0  0  0
    1.3433    4.4691   -1.3845 H   0  0  0  0  0  0  0  0  0  0  0  0
    0.2427    4.3763   -2.7641 H   0  0  0  0  0  0  0  0  0  0  0  0
    1.5689    0.6261    1.9004 B   0  0  0  0  0  0  0  0  0  0  0  0
    2.9350    0.7281    1.9525 O   0  0  0  0  0  0  0  0  0  0  0  0
    3.3182    2.0008    2.4960 C   0  0  0  0  0  0  0  0  0  0  0  0
    4.5214    1.8253    3.4213 C   0  0  0  0  0  0  0  0  0  0  0  0
    4.3282    1.0761    4.1824 H   0  0  0  0  0  0  0  0  0  0  0  0
    5.3756    1.4967    2.8350 H   0  0  0  0  0  0  0  0  0  0  0  0
    4.7670    2.7705    3.8973 H   0  0  0  0  0  0  0  0  0  0  0  0
    3.7108    2.8775    1.3009 C   0  0  0  0  0  0  0  0  0  0  0  0
    3.9864    3.8798    1.6137 H   0  0  0  0  0  0  0  0  0  0  0  0
    4.5594    2.4183    0.7994 H   0  0  0  0  0  0  0  0  0  0  0  0
    2.8818    2.9069    0.5986 H   0  0  0  0  0  0  0  0  0  0  0  0
    2.0053    2.4860    3.2035 C   0  0  0  0  0  0  0  0  0  0  0  0
    0.9960    1.6598    2.6047 O   0  0  0  0  0  0  0  0  0  0  0  0
    1.6503    3.9524    2.9632 C   0  0  0  0  0  0  0  0  0  0  0  0
    1.4687    4.1301    1.9086 H   0  0  0  0  0  0  0  0  0  0  0  0
    0.7424    4.1922    3.5112 H   0  0  0  0  0  0  0  0  0  0  0  0
    2.4515    4.5964    3.3142 H   0  0  0  0  0  0  0  0  0  0  0  0
    1.9875    2.2039    4.7111 C   0  0  0  0  0  0  0  0  0  0  0  0
    2.2021    1.1561    4.9021 H   0  0  0  0  0  0  0  0  0  0  0  0
    2.7095    2.8241    5.2331 H   0  0  0  0  0  0  0  0  0  0  0  0
    0.9937    2.4198    5.0969 H   0  0  0  0  0  0  0  0  0  0  0  0
    2.2782   -1.3309    0.1741 B   0  0  0  0  0  0  0  0  0  0  0  0
    3.1176   -2.2526    0.7622 O   0  0  0  0  0  0  0  0  0  0  0  0
    4.4004   -2.2454    0.1202 C   0  0  0  0  0  0  0  0  0  0  0  0
    5.3497   -1.4824    1.0500 C   0  0  0  0  0  0  0  0  0  0  0  0
    4.9244   -0.5063    1.2632 H   0  0  0  0  0  0  0  0  0  0  0  0
    5.4244   -2.0259    1.9886 H   0  0  0  0  0  0  0  0  0  0  0  0
    6.3408   -1.3861    0.6181 H   0  0  0  0  0  0  0  0  0  0  0  0
    4.8948   -3.6836   -0.0369 C   0  0  0  0  0  0  0  0  0  0  0  0
    5.0352   -4.1138    0.9512 H   0  0  0  0  0  0  0  0  0  0  0  0
    5.8439   -3.6980   -0.5650 H   0  0  0  0  0  0  0  0  0  0  0  0
    4.1738   -4.2950   -0.5689 H   0  0  0  0  0  0  0  0  0  0  0  0
    4.1130   -1.4894   -1.2268 C   0  0  0  0  0  0  0  0  0  0  0  0
    2.8497   -0.8509   -0.9771 O   0  0  0  0  0  0  0  0  0  0  0  0
    5.1419   -0.4213   -1.5935 C   0  0  0  0  0  0  0  0  0  0  0  0
    6.1282   -0.8647   -1.6965 H   0  0  0  0  0  0  0  0  0  0  0  0
    4.8599    0.0327   -2.5399 H   0  0  0  0  0  0  0  0  0  0  0  0
    5.1638    0.3567   -0.8385 H   0  0  0  0  0  0  0  0  0  0  0  0
    3.9178   -2.4280   -2.4247 C   0  0  0  0  0  0  0  0  0  0  0  0
    3.1546   -3.1691   -2.2050 H   0  0  0  0  0  0  0  0  0  0  0  0
    3.5800   -1.8399   -3.2743 H   0  0  0  0  0  0  0  0  0  0  0  0
    4.8475   -2.9242   -2.6858 H   0  0  0  0  0  0  0  0  0  0  0  0
   -3.3392   -3.7496   -2.8192 H   0  0  0  0  0  0  0  0  0  0  0  0
   -5.2209    1.3295    1.4617 H   0  0  0  0  0  0  0  0  0  0  0  0
    0.2359   -1.6814    2.9603 C   0  0  0  0  0  0  0  0  0  0  0  0
   -1.0325   -1.9754    3.2449 N   0  0  0  0  0  0  0  0  0  0  0  0
    1.1974   -1.6105    3.9830 C   0  0  0  0  0  0  0  0  0  0  0  0
   -1.4020   -2.1108    4.4971 C   0  0  0  0  0  0  0  0  0  0  0  0
    0.7857   -1.7662    5.2922 C   0  0  0  0  0  0  0  0  0  0  0  0
    2.2290   -1.4310    3.7293 H   0  0  0  0  0  0  0  0  0  0  0  0
   -0.5575   -2.0149    5.5900 C   0  0  0  0  0  0  0  0  0  0  0  0
   -3.0793   -2.4383    4.7542 Cl  0  0  0  0  0  0  0  0  0  0  0  0
    1.7713   -1.7134    6.4235 C   0  0  0  0  0  0  0  0  0  0  0  0
   -0.9086   -2.1330    6.6008 H   0  0  0  0  0  0  0  0  0  0  0  0
    2.9157   -1.0880    6.1083 F   0  0  0  0  0  0  0  0  0  0  0  0
    1.2895   -1.0821    7.5111 F   0  0  0  0  0  0  0  0  0  0  0  0
    2.1291   -2.9448    6.8495 F   0  0  0  0  0  0  0  0  0  0  0  0
  1  2  4  0  0  0  0
  2  3  4  0  0  0  0
  3  4  4  0  0  0  0
  4  5  4  0  0  0  0
  1  6  4  0  0  0  0
  5  6  4  0  0  0  0
  6  7  1  0  0  0  0
  5  8  1  0  0  0  0
  3  9  1  0  0  0  0
  2 10  1  0  0  0  0
 10 11  4  0  0  0  0
 11 12  4  0  0  0  0
 12 13  4  0  0  0  0
 13 14  4  0  0  0  0
 10 15  4  0  0  0  0
 14 15  4  0  0  0  0
 15 16  1  0  0  0  0
 13 17  1  0  0  0  0
 12 18  1  0  0  0  0
  1 19  1  0  0  0  0
 11 19  1  0  0  0  0
 19 20  1  0  0  0  0
 19 21  1  0  0  0  0
 21 22  1  0  0  0  0
 22 23  1  0  0  0  0
 23 24  1  0  0  0  0
 24 25  1  0  0  0  0
 24 26  1  0  0  0  0
 24 27  1  0  0  0  0
 23 28  1  0  0  0  0
 28 29  1  0  0  0  0
 28 30  1  0  0  0  0
 28 31  1  0  0  0  0
 23 32  1  0  0  0  0
 21 33  1  0  0  0  0
 32 33  1  0  0  0  0
 32 34  1  0  0  0  0
 34 35  1  0  0  0  0
 34 36  1  0  0  0  0
 34 37  1  0  0  0  0
 32 38  1  0  0  0  0
 38 39  1  0  0  0  0
 38 40  1  0  0  0  0
 38 41  1  0  0  0  0
 19 42  1  0  0  0  0
 42 43  1  0  0  0  0
 43 44  1  0  0  0  0
 44 45  1  0  0  0  0
 45 46  1  0  0  0  0
 45 47  1  0  0  0  0
 45 48  1  0  0  0  0
 44 49  1  0  0  0  0
 49 50  1  0  0  0  0
 49 51  1  0  0  0  0
 49 52  1  0  0  0  0
 44 53  1  0  0  0  0
 42 54  1  0  0  0  0
 53 54  1  0  0  0  0
 53 55  1  0  0  0  0
 55 56  1  0  0  0  0
 55 57  1  0  0  0  0
 55 58  1  0  0  0  0
 53 59  1  0  0  0  0
 59 60  1  0  0  0  0
 59 61  1  0  0  0  0
 59 62  1  0  0  0  0
 19 63  1  0  0  0  0
 63 64  1  0  0  0  0
 64 65  1  0  0  0  0
 65 66  1  0  0  0  0
 66 67  1  0  0  0  0
 66 68  1  0  0  0  0
 66 69  1  0  0  0  0
 65 70  1  0  0  0  0
 70 71  1  0  0  0  0
 70 72  1  0  0  0  0
 70 73  1  0  0  0  0
 65 74  1  0  0  0  0
 63 75  1  0  0  0  0
 74 75  1  0  0  0  0
 74 76  1  0  0  0  0
 76 77  1  0  0  0  0
 76 78  1  0  0  0  0
 76 79  1  0  0  0  0
 74 80  1  0  0  0  0
 80 81  1  0  0  0  0
 80 82  1  0  0  0  0
 80 83  1  0  0  0  0
  4 84  1  0  0  0  0
 14 85  1  0  0  0  0
 19 86  1  0  0  0  0
 20 86  1  0  0  0  0
 86 87  4  0  0  0  0
 86 88  4  0  0  0  0
 87 89  4  0  0  0  0
 88 90  4  0  0  0  0
 88 91  1  0  0  0  0
 89 92  4  0  0  0  0
 90 92  4  0  0  0  0
 89 93  1  0  0  0  0
 90 94  1  0  0  0  0
 92 95  1  0  0  0  0
 94 96  1  0  0  0  0
 94 97  1  0  0  0  0
 94 98  1  0  0  0  0
M  END
