   11

N         -1.40795       -0.11800        0.03467
C         -0.76233        1.07404        0.02764
C          0.61861        1.20071       -0.00676
Br         1.43156        2.89958       -0.06165
C          1.39128        0.04533       -0.01534
C          0.75638       -1.19766       -0.00461
C         -0.63516       -1.23295        0.00963
C         -1.33531       -2.48891       -0.03344
N         -1.85932       -3.52458       -0.08445
H          2.47656        0.09897       -0.03905
H          1.33930       -2.11260       -0.01921
