
  xtb     01142213173D
 xtb: 6.4.1 (1a32961)
 93100  0     0  0            999 V2000
   -0.9487   -2.0734   -0.2946 N   0  0  0  0  0  0  0  0  0  0  0  0
   -2.2112   -1.6234   -0.4334 C   0  0  0  0  0  0  0  0  0  0  0  0
   -3.1428   -2.3218   -1.2144 C   0  0  0  0  0  0  0  0  0  0  0  0
   -2.7619   -3.4686   -1.8741 C   0  0  0  0  0  0  0  0  0  0  0  0
   -1.4458   -3.9089   -1.7395 C   0  0  0  0  0  0  0  0  0  0  0  0
   -0.5912   -3.1814   -0.9389 C   0  0  0  0  0  0  0  0  0  0  0  0
    0.4339   -3.4926   -0.7934 H   0  0  0  0  0  0  0  0  0  0  0  0
   -1.1026   -4.7996   -2.2403 H   0  0  0  0  0  0  0  0  0  0  0  0
   -4.1594   -1.9730   -1.2959 H   0  0  0  0  0  0  0  0  0  0  0  0
   -2.5324   -0.3897    0.2674 C   0  0  0  0  0  0  0  0  0  0  0  0
   -1.5802    0.0993    1.0945 N   0  0  0  0  0  0  0  0  0  0  0  0
   -1.8356    1.2265    1.7592 C   0  0  0  0  0  0  0  0  0  0  0  0
   -3.0148    1.9312    1.6419 C   0  0  0  0  0  0  0  0  0  0  0  0
   -3.9947    1.4531    0.7735 C   0  0  0  0  0  0  0  0  0  0  0  0
   -3.7451    0.2872    0.0839 C   0  0  0  0  0  0  0  0  0  0  0  0
   -4.4828   -0.0923   -0.6039 H   0  0  0  0  0  0  0  0  0  0  0  0
   -3.1677    2.8342    2.2108 H   0  0  0  0  0  0  0  0  0  0  0  0
   -1.0400    1.5676    2.4035 H   0  0  0  0  0  0  0  0  0  0  0  0
    0.4215   -0.8165    0.9133 Ir  0  0  0  0  0  0  0  0  0  0  0  0
    0.8726   -2.2303    1.5405 H   0  0  0  0  0  0  0  0  0  0  0  0
    0.4165    0.5608   -0.6438 B   0  0  0  0  0  0  0  0  0  0  0  0
   -0.0988    0.1726   -1.8667 O   0  0  0  0  0  0  0  0  0  0  0  0
   -0.1848    1.2982   -2.7460 C   0  0  0  0  0  0  0  0  0  0  0  0
    0.2489    0.8829   -4.1500 C   0  0  0  0  0  0  0  0  0  0  0  0
    1.2158    0.3916   -4.1211 H   0  0  0  0  0  0  0  0  0  0  0  0
    0.2974    1.7517   -4.8015 H   0  0  0  0  0  0  0  0  0  0  0  0
   -0.4762    0.1800   -4.5537 H   0  0  0  0  0  0  0  0  0  0  0  0
   -1.6577    1.7316   -2.7803 C   0  0  0  0  0  0  0  0  0  0  0  0
   -1.8086    2.5568   -3.4700 H   0  0  0  0  0  0  0  0  0  0  0  0
   -2.2615    0.8851   -3.1020 H   0  0  0  0  0  0  0  0  0  0  0  0
   -1.9871    2.0202   -1.7841 H   0  0  0  0  0  0  0  0  0  0  0  0
    0.7424    2.3481   -2.0484 C   0  0  0  0  0  0  0  0  0  0  0  0
    0.7645    1.8923   -0.6890 O   0  0  0  0  0  0  0  0  0  0  0  0
    2.1879    2.2836   -2.5569 C   0  0  0  0  0  0  0  0  0  0  0  0
    2.5638    1.2720   -2.4241 H   0  0  0  0  0  0  0  0  0  0  0  0
    2.2577    2.5877   -3.5974 H   0  0  0  0  0  0  0  0  0  0  0  0
    2.8000    2.9476   -1.9511 H   0  0  0  0  0  0  0  0  0  0  0  0
    0.2439    3.7907   -2.1080 C   0  0  0  0  0  0  0  0  0  0  0  0
   -0.7059    3.9019   -1.5941 H   0  0  0  0  0  0  0  0  0  0  0  0
    0.9697    4.4372   -1.6208 H   0  0  0  0  0  0  0  0  0  0  0  0
    0.1352    4.1033   -3.1434 H   0  0  0  0  0  0  0  0  0  0  0  0
    1.5971    0.6220    1.8643 B   0  0  0  0  0  0  0  0  0  0  0  0
    2.9607    0.7769    1.8089 O   0  0  0  0  0  0  0  0  0  0  0  0
    3.3360    2.0226    2.4131 C   0  0  0  0  0  0  0  0  0  0  0  0
    4.6494    1.8597    3.1751 C   0  0  0  0  0  0  0  0  0  0  0  0
    4.6013    1.0110    3.8487 H   0  0  0  0  0  0  0  0  0  0  0  0
    5.4545    1.6859    2.4657 H   0  0  0  0  0  0  0  0  0  0  0  0
    4.8688    2.7636    3.7374 H   0  0  0  0  0  0  0  0  0  0  0  0
    3.5219    3.0257    1.2679 C   0  0  0  0  0  0  0  0  0  0  0  0
    3.8107    4.0054    1.6376 H   0  0  0  0  0  0  0  0  0  0  0  0
    4.2981    2.6522    0.6038 H   0  0  0  0  0  0  0  0  0  0  0  0
    2.5980    3.0873    0.6979 H   0  0  0  0  0  0  0  0  0  0  0  0
    2.0933    2.3510    3.3032 C   0  0  0  0  0  0  0  0  0  0  0  0
    1.0487    1.6048    2.6638 O   0  0  0  0  0  0  0  0  0  0  0  0
    1.7112    3.8286    3.3586 C   0  0  0  0  0  0  0  0  0  0  0  0
    1.4227    4.1889    2.3767 H   0  0  0  0  0  0  0  0  0  0  0  0
    0.8655    3.9547    4.0303 H   0  0  0  0  0  0  0  0  0  0  0  0
    2.5460    4.4156    3.7321 H   0  0  0  0  0  0  0  0  0  0  0  0
    2.2251    1.7950    4.7263 C   0  0  0  0  0  0  0  0  0  0  0  0
    2.4429    0.7314    4.6718 H   0  0  0  0  0  0  0  0  0  0  0  0
    2.9984    2.3150    5.2831 H   0  0  0  0  0  0  0  0  0  0  0  0
    1.2732    1.9213    5.2372 H   0  0  0  0  0  0  0  0  0  0  0  0
    2.2782   -1.3309    0.1741 B   0  0  0  0  0  0  0  0  0  0  0  0
    3.0475   -2.3778    0.6373 O   0  0  0  0  0  0  0  0  0  0  0  0
    4.3605   -2.3202    0.0670 C   0  0  0  0  0  0  0  0  0  0  0  0
    5.2702   -1.6991    1.1324 C   0  0  0  0  0  0  0  0  0  0  0  0
    4.8586   -0.7379    1.4265 H   0  0  0  0  0  0  0  0  0  0  0  0
    5.2659   -2.3456    2.0060 H   0  0  0  0  0  0  0  0  0  0  0  0
    6.2893   -1.5909    0.7740 H   0  0  0  0  0  0  0  0  0  0  0  0
    4.8417   -3.7361   -0.2493 C   0  0  0  0  0  0  0  0  0  0  0  0
    4.9256   -4.2908    0.6815 H   0  0  0  0  0  0  0  0  0  0  0  0
    5.8160   -3.7018   -0.7289 H   0  0  0  0  0  0  0  0  0  0  0  0
    4.1400   -4.2590   -0.8905 H   0  0  0  0  0  0  0  0  0  0  0  0
    4.1542   -1.3909   -1.1801 C   0  0  0  0  0  0  0  0  0  0  0  0
    2.9192   -0.7230   -0.8812 O   0  0  0  0  0  0  0  0  0  0  0  0
    5.2493   -0.3458   -1.3866 C   0  0  0  0  0  0  0  0  0  0  0  0
    6.2156   -0.8283   -1.5046 H   0  0  0  0  0  0  0  0  0  0  0  0
    5.0303    0.2278   -2.2838 H   0  0  0  0  0  0  0  0  0  0  0  0
    5.2769    0.3374   -0.5450 H   0  0  0  0  0  0  0  0  0  0  0  0
    3.9471   -2.1686   -2.4872 C   0  0  0  0  0  0  0  0  0  0  0  0
    3.1335   -2.8802   -2.3755 H   0  0  0  0  0  0  0  0  0  0  0  0
    3.6719   -1.4665   -3.2708 H   0  0  0  0  0  0  0  0  0  0  0  0
    4.8547   -2.6872   -2.7811 H   0  0  0  0  0  0  0  0  0  0  0  0
   -3.4683   -4.0155   -2.4799 H   0  0  0  0  0  0  0  0  0  0  0  0
   -4.9255    1.9838    0.6401 H   0  0  0  0  0  0  0  0  0  0  0  0
    0.2359   -1.6814    2.9603 C   0  0  0  0  0  0  0  0  0  0  0  0
   -1.0343   -2.0336    3.4793 C   0  0  0  0  0  0  0  0  0  0  0  0
    1.1003   -1.5414    3.9524 N   0  0  0  0  0  0  0  0  0  0  0  0
   -0.8779   -2.0523    4.8435 C   0  0  0  0  0  0  0  0  0  0  0  0
   -1.9311   -2.2368    2.9279 H   0  0  0  0  0  0  0  0  0  0  0  0
    0.4150   -1.7526    5.0835 N   0  0  0  0  0  0  0  0  0  0  0  0
   -1.5714   -2.2567    5.6348 H   0  0  0  0  0  0  0  0  0  0  0  0
    0.8836   -1.6925    5.9734 H   0  0  0  0  0  0  0  0  0  0  0  0
  1  2  4  0  0  0  0
  2  3  4  0  0  0  0
  3  4  4  0  0  0  0
  4  5  4  0  0  0  0
  1  6  4  0  0  0  0
  5  6  4  0  0  0  0
  6  7  1  0  0  0  0
  5  8  1  0  0  0  0
  3  9  1  0  0  0  0
  2 10  1  0  0  0  0
 10 11  4  0  0  0  0
 11 12  4  0  0  0  0
 12 13  4  0  0  0  0
 13 14  4  0  0  0  0
 10 15  4  0  0  0  0
 14 15  4  0  0  0  0
 15 16  1  0  0  0  0
 13 17  1  0  0  0  0
 12 18  1  0  0  0  0
  1 19  1  0  0  0  0
 11 19  1  0  0  0  0
 19 20  1  0  0  0  0
 19 21  1  0  0  0  0
 21 22  1  0  0  0  0
 22 23  1  0  0  0  0
 23 24  1  0  0  0  0
 24 25  1  0  0  0  0
 24 26  1  0  0  0  0
 24 27  1  0  0  0  0
 23 28  1  0  0  0  0
 28 29  1  0  0  0  0
 28 30  1  0  0  0  0
 28 31  1  0  0  0  0
 23 32  1  0  0  0  0
 21 33  1  0  0  0  0
 32 33  1  0  0  0  0
 32 34  1  0  0  0  0
 34 35  1  0  0  0  0
 34 36  1  0  0  0  0
 34 37  1  0  0  0  0
 32 38  1  0  0  0  0
 38 39  1  0  0  0  0
 38 40  1  0  0  0  0
 38 41  1  0  0  0  0
 19 42  1  0  0  0  0
 42 43  1  0  0  0  0
 43 44  1  0  0  0  0
 44 45  1  0  0  0  0
 45 46  1  0  0  0  0
 45 47  1  0  0  0  0
 45 48  1  0  0  0  0
 44 49  1  0  0  0  0
 49 50  1  0  0  0  0
 49 51  1  0  0  0  0
 49 52  1  0  0  0  0
 44 53  1  0  0  0  0
 42 54  1  0  0  0  0
 53 54  1  0  0  0  0
 53 55  1  0  0  0  0
 55 56  1  0  0  0  0
 55 57  1  0  0  0  0
 55 58  1  0  0  0  0
 53 59  1  0  0  0  0
 59 60  1  0  0  0  0
 59 61  1  0  0  0  0
 59 62  1  0  0  0  0
 19 63  1  0  0  0  0
 63 64  1  0  0  0  0
 64 65  1  0  0  0  0
 65 66  1  0  0  0  0
 66 67  1  0  0  0  0
 66 68  1  0  0  0  0
 66 69  1  0  0  0  0
 65 70  1  0  0  0  0
 70 71  1  0  0  0  0
 70 72  1  0  0  0  0
 70 73  1  0  0  0  0
 65 74  1  0  0  0  0
 63 75  1  0  0  0  0
 74 75  1  0  0  0  0
 74 76  1  0  0  0  0
 76 77  1  0  0  0  0
 76 78  1  0  0  0  0
 76 79  1  0  0  0  0
 74 80  1  0  0  0  0
 80 81  1  0  0  0  0
 80 82  1  0  0  0  0
 80 83  1  0  0  0  0
  4 84  1  0  0  0  0
 14 85  1  0  0  0  0
 19 86  1  0  0  0  0
 20 86  1  0  0  0  0
 86 87  4  0  0  0  0
 86 88  4  0  0  0  0
 87 89  2  0  0  0  0
 87 90  1  0  0  0  0
 88 91  1  0  0  0  0
 89 91  4  0  0  0  0
 89 92  1  0  0  0  0
 91 93  1  0  0  0  0
M  END
