
  xtb     01142213113D
 xtb: 6.4.1 (1a32961)
 17 18  0     0  0            999 V2000
    1.5694   -1.3425   -0.0012 C   0  0  0  0  0  0  0  0  0  0  0  0
    0.3828   -0.6299   -0.0010 C   0  0  0  0  0  0  0  0  0  0  0  0
    0.3726    0.7824    0.0006 C   0  0  0  0  0  0  0  0  0  0  0  0
   -0.8767    1.3393    0.0004 N   0  0  0  0  0  0  0  0  0  0  0  0
   -1.8078    0.4695   -0.0011 C   0  0  0  0  0  0  0  0  0  0  0  0
   -1.2532   -1.2235   -0.0026 S   0  0  0  0  0  0  0  0  0  0  0  0
   -3.2552    0.7687   -0.0015 C   0  0  0  0  0  0  0  0  0  0  0  0
    1.5781    1.4771    0.0020 C   0  0  0  0  0  0  0  0  0  0  0  0
    2.7578    0.7617    0.0018 C   0  0  0  0  0  0  0  0  0  0  0  0
    2.7548   -0.6317    0.0002 C   0  0  0  0  0  0  0  0  0  0  0  0
    1.5623   -2.4212   -0.0025 H   0  0  0  0  0  0  0  0  0  0  0  0
   -3.3991    1.8455   -0.0041 H   0  0  0  0  0  0  0  0  0  0  0  0
   -3.7271    0.3381    0.8803 H   0  0  0  0  0  0  0  0  0  0  0  0
   -3.7277    0.3335   -0.8808 H   0  0  0  0  0  0  0  0  0  0  0  0
    1.5663    2.5551    0.0033 H   0  0  0  0  0  0  0  0  0  0  0  0
    3.6998    1.2888    0.0029 H   0  0  0  0  0  0  0  0  0  0  0  0
    3.6921   -1.1670   -0.0000 H   0  0  0  0  0  0  0  0  0  0  0  0
  1  2  4  0  0  0  0
  2  3  4  0  0  0  0
  3  4  1  0  0  0  0
  4  5  2  0  0  0  0
  2  6  1  0  0  0  0
  5  6  1  0  0  0  0
  5  7  1  0  0  0  0
  3  8  4  0  0  0  0
  8  9  4  0  0  0  0
  1 10  4  0  0  0  0
  9 10  4  0  0  0  0
  1 11  1  0  0  0  0
  7 12  1  0  0  0  0
  7 13  1  0  0  0  0
  7 14  1  0  0  0  0
  8 15  1  0  0  0  0
  9 16  1  0  0  0  0
 10 17  1  0  0  0  0
M  END
