
  xtb     01142213063D
 xtb: 6.4.1 (1a32961)
 20 21  0     0  0            999 V2000
   -0.8980    1.4274   -0.0009 C   0  0  0  0  0  0  0  0  0  0  0  0
    0.2714    0.6928   -0.0001 C   0  0  0  0  0  0  0  0  0  0  0  0
    0.2824   -0.7146   -0.0003 C   0  0  0  0  0  0  0  0  0  0  0  0
    1.6024   -1.1246    0.0008 N   0  0  0  0  0  0  0  0  0  0  0  0
    2.2996   -0.0425    0.0016 C   0  0  0  0  0  0  0  0  0  0  0  0
    1.5690    1.1100    0.0012 O   0  0  0  0  0  0  0  0  0  0  0  0
    3.7750    0.0558    0.0029 C   0  0  0  0  0  0  0  0  0  0  0  0
   -0.9037   -1.4448   -0.0016 C   0  0  0  0  0  0  0  0  0  0  0  0
   -0.9026   -2.9398   -0.0019 C   0  0  0  0  0  0  0  0  0  0  0  0
   -2.0724   -0.6971   -0.0024 C   0  0  0  0  0  0  0  0  0  0  0  0
   -2.0730    0.6955   -0.0021 C   0  0  0  0  0  0  0  0  0  0  0  0
   -0.8891    2.5049   -0.0007 H   0  0  0  0  0  0  0  0  0  0  0  0
    4.1960   -0.9439    0.0033 H   0  0  0  0  0  0  0  0  0  0  0  0
    4.1086    0.6007    0.8844 H   0  0  0  0  0  0  0  0  0  0  0  0
    4.1100    0.6006   -0.8782 H   0  0  0  0  0  0  0  0  0  0  0  0
    0.1197   -3.3058   -0.0026 H   0  0  0  0  0  0  0  0  0  0  0  0
   -1.4199   -3.3180   -0.8823 H   0  0  0  0  0  0  0  0  0  0  0  0
   -1.4188   -3.3184    0.8790 H   0  0  0  0  0  0  0  0  0  0  0  0
   -3.0186   -1.2179   -0.0033 H   0  0  0  0  0  0  0  0  0  0  0  0
   -3.0164    1.2198   -0.0028 H   0  0  0  0  0  0  0  0  0  0  0  0
  1  2  4  0  0  0  0
  2  3  4  0  0  0  0
  3  4  1  0  0  0  0
  4  5  2  0  0  0  0
  2  6  1  0  0  0  0
  5  6  1  0  0  0  0
  5  7  1  0  0  0  0
  3  8  4  0  0  0  0
  8  9  1  0  0  0  0
  8 10  4  0  0  0  0
  1 11  4  0  0  0  0
 10 11  4  0  0  0  0
  1 12  1  0  0  0  0
  7 13  1  0  0  0  0
  7 14  1  0  0  0  0
  7 15  1  0  0  0  0
  9 16  1  0  0  0  0
  9 17  1  0  0  0  0
  9 18  1  0  0  0  0
 10 19  1  0  0  0  0
 11 20  1  0  0  0  0
M  END
