
  xtb     01142213333D
 xtb: 6.4.1 (1a32961)
 15 16  0     0  0            999 V2000
    1.0011   -1.4241   -0.0024 C   0  0  0  0  0  0  0  0  0  0  0  0
   -0.1642   -0.6971    0.0267 C   0  0  0  0  0  0  0  0  0  0  0  0
   -1.4632   -1.1471    0.0529 O   0  0  0  0  0  0  0  0  0  0  0  0
   -2.2755    0.0100    0.0778 C   0  0  0  0  0  0  0  0  0  0  0  0
   -1.4524    1.1597    0.0676 O   0  0  0  0  0  0  0  0  0  0  0  0
   -0.1577    0.6978    0.0353 C   0  0  0  0  0  0  0  0  0  0  0  0
    1.0143    1.4143    0.0152 C   0  0  0  0  0  0  0  0  0  0  0  0
    2.1998    0.6811   -0.0142 C   0  0  0  0  0  0  0  0  0  0  0  0
    2.1933   -0.7016   -0.0227 C   0  0  0  0  0  0  0  0  0  0  0  0
    0.9857   -2.5006   -0.0095 H   0  0  0  0  0  0  0  0  0  0  0  0
   -2.8914    0.0070    0.9907 H   0  0  0  0  0  0  0  0  0  0  0  0
   -2.9295    0.0188   -0.8081 H   0  0  0  0  0  0  0  0  0  0  0  0
    1.0088    2.4909    0.0227 H   0  0  0  0  0  0  0  0  0  0  0  0
    3.1389    1.2110   -0.0302 H   0  0  0  0  0  0  0  0  0  0  0  0
    3.1275   -1.2401   -0.0458 H   0  0  0  0  0  0  0  0  0  0  0  0
  1  2  4  0  0  0  0
  2  3  1  0  0  0  0
  3  4  1  0  0  0  0
  4  5  1  0  0  0  0
  2  6  4  0  0  0  0
  5  6  1  0  0  0  0
  6  7  4  0  0  0  0
  7  8  4  0  0  0  0
  1  9  4  0  0  0  0
  8  9  4  0  0  0  0
  1 10  1  0  0  0  0
  4 11  1  0  0  0  0
  4 12  1  0  0  0  0
  7 13  1  0  0  0  0
  8 14  1  0  0  0  0
  9 15  1  0  0  0  0
M  END
