
  xtb     01142213323D
 xtb: 6.4.1 (1a32961)
103110  0     0  0            999 V2000
   -0.8128   -1.9533   -0.5198 N   0  0  0  0  0  0  0  0  0  0  0  0
   -2.0746   -1.5193   -0.6708 C   0  0  0  0  0  0  0  0  0  0  0  0
   -2.9414   -2.1314   -1.5844 C   0  0  0  0  0  0  0  0  0  0  0  0
   -2.4989   -3.1906   -2.3461 C   0  0  0  0  0  0  0  0  0  0  0  0
   -1.1866   -3.6222   -2.1850 C   0  0  0  0  0  0  0  0  0  0  0  0
   -0.3939   -2.9701   -1.2628 C   0  0  0  0  0  0  0  0  0  0  0  0
    0.6309   -3.2726   -1.1020 H   0  0  0  0  0  0  0  0  0  0  0  0
   -0.7970   -4.4497   -2.7552 H   0  0  0  0  0  0  0  0  0  0  0  0
   -3.9588   -1.7924   -1.6910 H   0  0  0  0  0  0  0  0  0  0  0  0
   -2.4879   -0.4016    0.1718 C   0  0  0  0  0  0  0  0  0  0  0  0
   -1.6143    0.0040    1.1160 N   0  0  0  0  0  0  0  0  0  0  0  0
   -1.9726    0.9856    1.9412 C   0  0  0  0  0  0  0  0  0  0  0  0
   -3.1900    1.6313    1.8750 C   0  0  0  0  0  0  0  0  0  0  0  0
   -4.0867    1.2533    0.8803 C   0  0  0  0  0  0  0  0  0  0  0  0
   -3.7286    0.2306    0.0274 C   0  0  0  0  0  0  0  0  0  0  0  0
   -4.4072   -0.0700   -0.7539 H   0  0  0  0  0  0  0  0  0  0  0  0
   -3.4316    2.4118    2.5778 H   0  0  0  0  0  0  0  0  0  0  0  0
   -1.2315    1.2632    2.6756 H   0  0  0  0  0  0  0  0  0  0  0  0
    0.4215   -0.8165    0.9133 Ir  0  0  0  0  0  0  0  0  0  0  0  0
    0.8726   -2.2303    1.5405 H   0  0  0  0  0  0  0  0  0  0  0  0
    0.4727    0.6886   -0.5380 B   0  0  0  0  0  0  0  0  0  0  0  0
   -0.2596    0.5442   -1.7001 O   0  0  0  0  0  0  0  0  0  0  0  0
   -0.2587    1.7734   -2.4376 C   0  0  0  0  0  0  0  0  0  0  0  0
   -0.1218    1.4779   -3.9290 C   0  0  0  0  0  0  0  0  0  0  0  0
    0.7271    0.8290   -4.1163 H   0  0  0  0  0  0  0  0  0  0  0  0
   -0.0037    2.4051   -4.4837 H   0  0  0  0  0  0  0  0  0  0  0  0
   -1.0193    0.9723   -4.2766 H   0  0  0  0  0  0  0  0  0  0  0  0
   -1.6116    2.4505   -2.1769 C   0  0  0  0  0  0  0  0  0  0  0  0
   -1.7034    3.3746   -2.7396 H   0  0  0  0  0  0  0  0  0  0  0  0
   -2.4047    1.7698   -2.4800 H   0  0  0  0  0  0  0  0  0  0  0  0
   -1.7297    2.6523   -1.1141 H   0  0  0  0  0  0  0  0  0  0  0  0
    0.9418    2.5507   -1.8036 C   0  0  0  0  0  0  0  0  0  0  0  0
    1.0725    1.9239   -0.5184 O   0  0  0  0  0  0  0  0  0  0  0  0
    2.2604    2.3060   -2.5464 C   0  0  0  0  0  0  0  0  0  0  0  0
    2.4484    1.2363   -2.5958 H   0  0  0  0  0  0  0  0  0  0  0  0
    2.2414    2.7377   -3.5427 H   0  0  0  0  0  0  0  0  0  0  0  0
    3.0693    2.7601   -1.9789 H   0  0  0  0  0  0  0  0  0  0  0  0
    0.7212    4.0521   -1.6301 C   0  0  0  0  0  0  0  0  0  0  0  0
   -0.0998    4.2530   -0.9488 H   0  0  0  0  0  0  0  0  0  0  0  0
    1.6222    4.4989   -1.2167 H   0  0  0  0  0  0  0  0  0  0  0  0
    0.5139    4.5112   -2.5931 H   0  0  0  0  0  0  0  0  0  0  0  0
    1.5117    0.6484    1.9323 B   0  0  0  0  0  0  0  0  0  0  0  0
    2.8733    0.7783    1.9933 O   0  0  0  0  0  0  0  0  0  0  0  0
    3.2379    2.0327    2.5872 C   0  0  0  0  0  0  0  0  0  0  0  0
    4.3852    1.8116    3.5730 C   0  0  0  0  0  0  0  0  0  0  0  0
    4.1282    1.0669    4.3193 H   0  0  0  0  0  0  0  0  0  0  0  0
    5.2535    1.4525    3.0268 H   0  0  0  0  0  0  0  0  0  0  0  0
    4.6417    2.7448    4.0663 H   0  0  0  0  0  0  0  0  0  0  0  0
    3.7201    2.9304    1.4413 C   0  0  0  0  0  0  0  0  0  0  0  0
    3.9707    3.9267    1.7918 H   0  0  0  0  0  0  0  0  0  0  0  0
    4.6059    2.4803    0.9990 H   0  0  0  0  0  0  0  0  0  0  0  0
    2.9478    2.9749    0.6785 H   0  0  0  0  0  0  0  0  0  0  0  0
    1.8930    2.5222    3.2357 C   0  0  0  0  0  0  0  0  0  0  0  0
    0.9098    1.6663    2.6344 O   0  0  0  0  0  0  0  0  0  0  0  0
    1.5276    3.9745    2.9291 C   0  0  0  0  0  0  0  0  0  0  0  0
    1.3938    4.1126    1.8614 H   0  0  0  0  0  0  0  0  0  0  0  0
    0.5905    4.2162    3.4248 H   0  0  0  0  0  0  0  0  0  0  0  0
    2.2997    4.6449    3.2955 H   0  0  0  0  0  0  0  0  0  0  0  0
    1.8249    2.2988    4.7513 C   0  0  0  0  0  0  0  0  0  0  0  0
    2.0264    1.2591    4.9942 H   0  0  0  0  0  0  0  0  0  0  0  0
    2.5331    2.9362    5.2711 H   0  0  0  0  0  0  0  0  0  0  0  0
    0.8202    2.5348    5.0948 H   0  0  0  0  0  0  0  0  0  0  0  0
    2.2782   -1.3309    0.1741 B   0  0  0  0  0  0  0  0  0  0  0  0
    3.1930   -2.1263    0.8258 O   0  0  0  0  0  0  0  0  0  0  0  0
    4.4328   -2.1546    0.1045 C   0  0  0  0  0  0  0  0  0  0  0  0
    5.3850   -1.2008    0.8331 C   0  0  0  0  0  0  0  0  0  0  0  0
    4.9172   -0.2234    0.9070 H   0  0  0  0  0  0  0  0  0  0  0  0
    5.5382   -1.5726    1.8431 H   0  0  0  0  0  0  0  0  0  0  0  0
    6.3447   -1.1334    0.3302 H   0  0  0  0  0  0  0  0  0  0  0  0
    5.0088   -3.5698    0.1378 C   0  0  0  0  0  0  0  0  0  0  0  0
    5.2538   -3.8234    1.1657 H   0  0  0  0  0  0  0  0  0  0  0  0
    5.9128   -3.6190   -0.4625 H   0  0  0  0  0  0  0  0  0  0  0  0
    4.2914   -4.2984   -0.2248 H   0  0  0  0  0  0  0  0  0  0  0  0
    4.0160   -1.6402   -1.3184 C   0  0  0  0  0  0  0  0  0  0  0  0
    2.7562   -0.9919   -1.0694 O   0  0  0  0  0  0  0  0  0  0  0  0
    4.9813   -0.6361   -1.9450 C   0  0  0  0  0  0  0  0  0  0  0  0
    5.9699   -1.0759   -2.0424 H   0  0  0  0  0  0  0  0  0  0  0  0
    4.6203   -0.3639   -2.9336 H   0  0  0  0  0  0  0  0  0  0  0  0
    5.0367    0.2645   -1.3435 H   0  0  0  0  0  0  0  0  0  0  0  0
    3.7528   -2.7733   -2.3188 C   0  0  0  0  0  0  0  0  0  0  0  0
    3.0499   -3.4895   -1.9022 H   0  0  0  0  0  0  0  0  0  0  0  0
    3.3091   -2.3488   -3.2160 H   0  0  0  0  0  0  0  0  0  0  0  0
    4.6759   -3.2791   -2.5848 H   0  0  0  0  0  0  0  0  0  0  0  0
   -3.1597   -3.6751   -3.0488 H   0  0  0  0  0  0  0  0  0  0  0  0
   -5.0415    1.7456    0.7768 H   0  0  0  0  0  0  0  0  0  0  0  0
    0.2359   -1.6814    2.9603 C   0  0  0  0  0  0  0  0  0  0  0  0
   -1.0388   -1.9460    3.4863 C   0  0  0  0  0  0  0  0  0  0  0  0
    1.2873   -1.5195    3.8653 C   0  0  0  0  0  0  0  0  0  0  0  0
   -2.1703   -2.3618    2.6369 C   0  0  0  0  0  0  0  0  0  0  0  0
   -1.2617   -1.8964    4.8703 C   0  0  0  0  0  0  0  0  0  0  0  0
    1.0637   -1.4946    5.2380 C   0  0  0  0  0  0  0  0  0  0  0  0
    2.2913   -1.4066    3.4855 H   0  0  0  0  0  0  0  0  0  0  0  0
   -2.0918   -3.0579    1.6458 O   0  0  0  0  0  0  0  0  0  0  0  0
   -3.3548   -1.9547    3.1299 O   0  0  0  0  0  0  0  0  0  0  0  0
   -0.2328   -1.6576    5.7484 C   0  0  0  0  0  0  0  0  0  0  0  0
   -2.2598   -2.0677    5.2438 H   0  0  0  0  0  0  0  0  0  0  0  0
    2.1460   -1.3017    6.1226 C   0  0  0  0  0  0  0  0  0  0  0  0
   -4.5201   -2.4038    2.4475 C   0  0  0  0  0  0  0  0  0  0  0  0
   -0.4050   -1.6194    6.8129 H   0  0  0  0  0  0  0  0  0  0  0  0
    3.0220   -1.1339    6.8464 N   0  0  0  0  0  0  0  0  0  0  0  0
   -4.5045   -3.4911    2.3489 H   0  0  0  0  0  0  0  0  0  0  0  0
   -4.5675   -1.9584    1.4517 H   0  0  0  0  0  0  0  0  0  0  0  0
   -5.3621   -2.0795    3.0529 H   0  0  0  0  0  0  0  0  0  0  0  0
  1  2  4  0  0  0  0
  2  3  4  0  0  0  0
  3  4  4  0  0  0  0
  4  5  4  0  0  0  0
  1  6  4  0  0  0  0
  5  6  4  0  0  0  0
  6  7  1  0  0  0  0
  5  8  1  0  0  0  0
  3  9  1  0  0  0  0
  2 10  1  0  0  0  0
 10 11  4  0  0  0  0
 11 12  4  0  0  0  0
 12 13  4  0  0  0  0
 13 14  4  0  0  0  0
 10 15  4  0  0  0  0
 14 15  4  0  0  0  0
 15 16  1  0  0  0  0
 13 17  1  0  0  0  0
 12 18  1  0  0  0  0
  1 19  1  0  0  0  0
 11 19  1  0  0  0  0
 19 20  1  0  0  0  0
 19 21  1  0  0  0  0
 21 22  1  0  0  0  0
 22 23  1  0  0  0  0
 23 24  1  0  0  0  0
 24 25  1  0  0  0  0
 24 26  1  0  0  0  0
 24 27  1  0  0  0  0
 23 28  1  0  0  0  0
 28 29  1  0  0  0  0
 28 30  1  0  0  0  0
 28 31  1  0  0  0  0
 23 32  1  0  0  0  0
 21 33  1  0  0  0  0
 32 33  1  0  0  0  0
 32 34  1  0  0  0  0
 34 35  1  0  0  0  0
 34 36  1  0  0  0  0
 34 37  1  0  0  0  0
 32 38  1  0  0  0  0
 38 39  1  0  0  0  0
 38 40  1  0  0  0  0
 38 41  1  0  0  0  0
 19 42  1  0  0  0  0
 42 43  1  0  0  0  0
 43 44  1  0  0  0  0
 44 45  1  0  0  0  0
 45 46  1  0  0  0  0
 45 47  1  0  0  0  0
 45 48  1  0  0  0  0
 44 49  1  0  0  0  0
 49 50  1  0  0  0  0
 49 51  1  0  0  0  0
 49 52  1  0  0  0  0
 44 53  1  0  0  0  0
 42 54  1  0  0  0  0
 53 54  1  0  0  0  0
 53 55  1  0  0  0  0
 55 56  1  0  0  0  0
 55 57  1  0  0  0  0
 55 58  1  0  0  0  0
 53 59  1  0  0  0  0
 59 60  1  0  0  0  0
 59 61  1  0  0  0  0
 59 62  1  0  0  0  0
 19 63  1  0  0  0  0
 63 64  1  0  0  0  0
 64 65  1  0  0  0  0
 65 66  1  0  0  0  0
 66 67  1  0  0  0  0
 66 68  1  0  0  0  0
 66 69  1  0  0  0  0
 65 70  1  0  0  0  0
 70 71  1  0  0  0  0
 70 72  1  0  0  0  0
 70 73  1  0  0  0  0
 65 74  1  0  0  0  0
 63 75  1  0  0  0  0
 74 75  1  0  0  0  0
 74 76  1  0  0  0  0
 76 77  1  0  0  0  0
 76 78  1  0  0  0  0
 76 79  1  0  0  0  0
 74 80  1  0  0  0  0
 80 81  1  0  0  0  0
 80 82  1  0  0  0  0
 80 83  1  0  0  0  0
  4 84  1  0  0  0  0
 14 85  1  0  0  0  0
 19 86  1  0  0  0  0
 20 86  1  0  0  0  0
 86 87  4  0  0  0  0
 86 88  4  0  0  0  0
 87 89  1  0  0  0  0
 87 90  4  0  0  0  0
 88 91  4  0  0  0  0
 88 92  1  0  0  0  0
 89 93  2  0  0  0  0
 89 94  1  0  0  0  0
 90 95  4  0  0  0  0
 91 95  4  0  0  0  0
 90 96  1  0  0  0  0
 91 97  1  0  0  0  0
 94 98  1  0  0  0  0
 95 99  1  0  0  0  0
 97100  3  0  0  0  0
 98101  1  0  0  0  0
 98102  1  0  0  0  0
 98103  1  0  0  0  0
M  END
