
  xtb     01142213143D
 xtb: 6.4.1 (1a32961)
102110  0     0  0            999 V2000
   -1.0539   -1.9756   -0.3544 N   0  0  0  0  0  0  0  0  0  0  0  0
   -2.2197   -1.3416   -0.5954 C   0  0  0  0  0  0  0  0  0  0  0  0
   -3.0383   -1.7182   -1.6657 C   0  0  0  0  0  0  0  0  0  0  0  0
   -2.6538   -2.7557   -2.4878 C   0  0  0  0  0  0  0  0  0  0  0  0
   -1.4529   -3.4086   -2.2223 C   0  0  0  0  0  0  0  0  0  0  0  0
   -0.6959   -2.9784   -1.1522 C   0  0  0  0  0  0  0  0  0  0  0  0
    0.2416   -3.4562   -0.9046 H   0  0  0  0  0  0  0  0  0  0  0  0
   -1.1171   -4.2280   -2.8364 H   0  0  0  0  0  0  0  0  0  0  0  0
   -3.9588   -1.1938   -1.8631 H   0  0  0  0  0  0  0  0  0  0  0  0
   -2.5511   -0.2441    0.3088 C   0  0  0  0  0  0  0  0  0  0  0  0
   -1.5866    0.1259    1.1786 N   0  0  0  0  0  0  0  0  0  0  0  0
   -1.8396    1.1162    2.0294 C   0  0  0  0  0  0  0  0  0  0  0  0
   -3.0417    1.7947    2.0702 C   0  0  0  0  0  0  0  0  0  0  0  0
   -4.0445    1.4266    1.1782 C   0  0  0  0  0  0  0  0  0  0  0  0
   -3.7933    0.3991    0.2931 C   0  0  0  0  0  0  0  0  0  0  0  0
   -4.5617    0.0900   -0.3961 H   0  0  0  0  0  0  0  0  0  0  0  0
   -3.1956    2.5842    2.7872 H   0  0  0  0  0  0  0  0  0  0  0  0
   -1.0307    1.3678    2.6980 H   0  0  0  0  0  0  0  0  0  0  0  0
    0.4215   -0.8165    0.9133 Ir  0  0  0  0  0  0  0  0  0  0  0  0
    0.8726   -2.2303    1.5405 H   0  0  0  0  0  0  0  0  0  0  0  0
    0.4111    0.5433   -0.6618 B   0  0  0  0  0  0  0  0  0  0  0  0
   -0.1152    0.1602   -1.8813 O   0  0  0  0  0  0  0  0  0  0  0  0
   -0.2106    1.2915   -2.7540 C   0  0  0  0  0  0  0  0  0  0  0  0
    0.1934    0.8791   -4.1670 C   0  0  0  0  0  0  0  0  0  0  0  0
    1.1557    0.3784   -4.1578 H   0  0  0  0  0  0  0  0  0  0  0  0
    0.2384    1.7506   -4.8148 H   0  0  0  0  0  0  0  0  0  0  0  0
   -0.5463    0.1858   -4.5601 H   0  0  0  0  0  0  0  0  0  0  0  0
   -1.6804    1.7359   -2.7571 C   0  0  0  0  0  0  0  0  0  0  0  0
   -1.8367    2.5685   -3.4364 H   0  0  0  0  0  0  0  0  0  0  0  0
   -2.2956    0.8968   -3.0757 H   0  0  0  0  0  0  0  0  0  0  0  0
   -1.9879    2.0188   -1.7522 H   0  0  0  0  0  0  0  0  0  0  0  0
    0.7357    2.3294   -2.0669 C   0  0  0  0  0  0  0  0  0  0  0  0
    0.7596    1.8738   -0.7058 O   0  0  0  0  0  0  0  0  0  0  0  0
    2.1745    2.2386   -2.5887 C   0  0  0  0  0  0  0  0  0  0  0  0
    2.5342    1.2208   -2.4571 H   0  0  0  0  0  0  0  0  0  0  0  0
    2.2384    2.5387   -3.6306 H   0  0  0  0  0  0  0  0  0  0  0  0
    2.8050    2.8931   -1.9921 H   0  0  0  0  0  0  0  0  0  0  0  0
    0.2589    3.7789   -2.1262 C   0  0  0  0  0  0  0  0  0  0  0  0
   -0.6860    3.9070   -1.6073 H   0  0  0  0  0  0  0  0  0  0  0  0
    0.9975    4.4164   -1.6464 H   0  0  0  0  0  0  0  0  0  0  0  0
    0.1485    4.0900   -3.1619 H   0  0  0  0  0  0  0  0  0  0  0  0
    1.6451    0.6454    1.7711 B   0  0  0  0  0  0  0  0  0  0  0  0
    2.9662    0.9214    1.5556 O   0  0  0  0  0  0  0  0  0  0  0  0
    3.3281    2.1613    2.1804 C   0  0  0  0  0  0  0  0  0  0  0  0
    4.6909    2.0130    2.8567 C   0  0  0  0  0  0  0  0  0  0  0  0
    4.7037    1.1512    3.5160 H   0  0  0  0  0  0  0  0  0  0  0  0
    5.4517    1.8662    2.0941 H   0  0  0  0  0  0  0  0  0  0  0  0
    4.9307    2.9103    3.4203 H   0  0  0  0  0  0  0  0  0  0  0  0
    3.4270    3.2012    1.0582 C   0  0  0  0  0  0  0  0  0  0  0  0
    3.6746    4.1845    1.4466 H   0  0  0  0  0  0  0  0  0  0  0  0
    4.2043    2.8867    0.3655 H   0  0  0  0  0  0  0  0  0  0  0  0
    2.4860    3.2291    0.5155 H   0  0  0  0  0  0  0  0  0  0  0  0
    2.1305    2.4247    3.1609 C   0  0  0  0  0  0  0  0  0  0  0  0
    1.1123    1.5403    2.6701 O   0  0  0  0  0  0  0  0  0  0  0  0
    1.5918    3.8551    3.1475 C   0  0  0  0  0  0  0  0  0  0  0  0
    1.2080    4.1129    2.1660 H   0  0  0  0  0  0  0  0  0  0  0  0
    0.7779    3.9323    3.8642 H   0  0  0  0  0  0  0  0  0  0  0  0
    2.3742    4.5535    3.4309 H   0  0  0  0  0  0  0  0  0  0  0  0
    2.4296    2.0182    4.6088 C   0  0  0  0  0  0  0  0  0  0  0  0
    2.7823    0.9926    4.6437 H   0  0  0  0  0  0  0  0  0  0  0  0
    3.1703    2.6762    5.0525 H   0  0  0  0  0  0  0  0  0  0  0  0
    1.5098    2.0785    5.1863 H   0  0  0  0  0  0  0  0  0  0  0  0
    2.2782   -1.3309    0.1741 B   0  0  0  0  0  0  0  0  0  0  0  0
    3.0752   -2.3219    0.7029 O   0  0  0  0  0  0  0  0  0  0  0  0
    4.3713   -2.2936    0.0926 C   0  0  0  0  0  0  0  0  0  0  0  0
    5.2988   -1.5734    1.0764 C   0  0  0  0  0  0  0  0  0  0  0  0
    4.8924   -0.5884    1.2855 H   0  0  0  0  0  0  0  0  0  0  0  0
    5.3078   -2.1314    2.0093 H   0  0  0  0  0  0  0  0  0  0  0  0
    6.3118   -1.5006    0.6927 H   0  0  0  0  0  0  0  0  0  0  0  0
    4.8658   -3.7242   -0.1193 C   0  0  0  0  0  0  0  0  0  0  0  0
    4.9946   -4.1952    0.8516 H   0  0  0  0  0  0  0  0  0  0  0  0
    5.8206   -3.7167   -0.6373 H   0  0  0  0  0  0  0  0  0  0  0  0
    4.1502   -4.3109   -0.6857 H   0  0  0  0  0  0  0  0  0  0  0  0
    4.1149   -1.4745   -1.2210 C   0  0  0  0  0  0  0  0  0  0  0  0
    2.8783   -0.7987   -0.9423 O   0  0  0  0  0  0  0  0  0  0  0  0
    5.1894   -0.4391   -1.5472 C   0  0  0  0  0  0  0  0  0  0  0  0
    6.1598   -0.9187   -1.6399 H   0  0  0  0  0  0  0  0  0  0  0  0
    4.9451    0.0457   -2.4891 H   0  0  0  0  0  0  0  0  0  0  0  0
    5.2247    0.3195   -0.7733 H   0  0  0  0  0  0  0  0  0  0  0  0
    3.8776   -2.3617   -2.4506 C   0  0  0  0  0  0  0  0  0  0  0  0
    3.0876   -3.0793   -2.2471 H   0  0  0  0  0  0  0  0  0  0  0  0
    3.5546   -1.7321   -3.2762 H   0  0  0  0  0  0  0  0  0  0  0  0
    4.7860   -2.8828   -2.7372 H   0  0  0  0  0  0  0  0  0  0  0  0
   -3.2711   -3.0522   -3.3220 H   0  0  0  0  0  0  0  0  0  0  0  0
   -5.0001    1.9286    1.1808 H   0  0  0  0  0  0  0  0  0  0  0  0
    0.2359   -1.6814    2.9603 C   0  0  0  0  0  0  0  0  0  0  0  0
   -1.0401   -2.0298    3.3964 C   0  0  0  0  0  0  0  0  0  0  0  0
    1.1315   -1.5139    4.0023 C   0  0  0  0  0  0  0  0  0  0  0  0
   -1.4252   -2.0812    4.7597 C   0  0  0  0  0  0  0  0  0  0  0  0
   -2.1761   -2.3649    2.7030 N   0  0  0  0  0  0  0  0  0  0  0  0
    0.8013   -1.5681    5.3565 C   0  0  0  0  0  0  0  0  0  0  0  0
    2.4489   -1.2771    3.7224 F   0  0  0  0  0  0  0  0  0  0  0  0
   -2.7555   -2.4140    4.8458 N   0  0  0  0  0  0  0  0  0  0  0  0
   -0.4901   -1.8359    5.7592 C   0  0  0  0  0  0  0  0  0  0  0  0
   -3.1647   -2.5770    3.6189 C   0  0  0  0  0  0  0  0  0  0  0  0
   -2.2365   -2.4552    1.7029 H   0  0  0  0  0  0  0  0  0  0  0  0
    1.5821   -1.3955    6.0813 H   0  0  0  0  0  0  0  0  0  0  0  0
   -0.7654   -1.8703    6.8000 H   0  0  0  0  0  0  0  0  0  0  0  0
   -4.5456   -2.9425    3.2188 C   0  0  0  0  0  0  0  0  0  0  0  0
   -5.1509   -3.0645    4.1110 H   0  0  0  0  0  0  0  0  0  0  0  0
   -4.5443   -3.8726    2.6529 H   0  0  0  0  0  0  0  0  0  0  0  0
   -4.9749   -2.1587    2.5959 H   0  0  0  0  0  0  0  0  0  0  0  0
  1  2  4  0  0  0  0
  2  3  4  0  0  0  0
  3  4  4  0  0  0  0
  4  5  4  0  0  0  0
  1  6  4  0  0  0  0
  5  6  4  0  0  0  0
  6  7  1  0  0  0  0
  5  8  1  0  0  0  0
  3  9  1  0  0  0  0
  2 10  1  0  0  0  0
 10 11  4  0  0  0  0
 11 12  4  0  0  0  0
 12 13  4  0  0  0  0
 13 14  4  0  0  0  0
 10 15  4  0  0  0  0
 14 15  4  0  0  0  0
 15 16  1  0  0  0  0
 13 17  1  0  0  0  0
 12 18  1  0  0  0  0
  1 19  1  0  0  0  0
 11 19  1  0  0  0  0
 19 20  1  0  0  0  0
 19 21  1  0  0  0  0
 21 22  1  0  0  0  0
 22 23  1  0  0  0  0
 23 24  1  0  0  0  0
 24 25  1  0  0  0  0
 24 26  1  0  0  0  0
 24 27  1  0  0  0  0
 23 28  1  0  0  0  0
 28 29  1  0  0  0  0
 28 30  1  0  0  0  0
 28 31  1  0  0  0  0
 23 32  1  0  0  0  0
 21 33  1  0  0  0  0
 32 33  1  0  0  0  0
 32 34  1  0  0  0  0
 34 35  1  0  0  0  0
 34 36  1  0  0  0  0
 34 37  1  0  0  0  0
 32 38  1  0  0  0  0
 38 39  1  0  0  0  0
 38 40  1  0  0  0  0
 38 41  1  0  0  0  0
 19 42  1  0  0  0  0
 42 43  1  0  0  0  0
 43 44  1  0  0  0  0
 44 45  1  0  0  0  0
 45 46  1  0  0  0  0
 45 47  1  0  0  0  0
 45 48  1  0  0  0  0
 44 49  1  0  0  0  0
 49 50  1  0  0  0  0
 49 51  1  0  0  0  0
 49 52  1  0  0  0  0
 44 53  1  0  0  0  0
 42 54  1  0  0  0  0
 53 54  1  0  0  0  0
 53 55  1  0  0  0  0
 55 56  1  0  0  0  0
 55 57  1  0  0  0  0
 55 58  1  0  0  0  0
 53 59  1  0  0  0  0
 59 60  1  0  0  0  0
 59 61  1  0  0  0  0
 59 62  1  0  0  0  0
 19 63  1  0  0  0  0
 63 64  1  0  0  0  0
 64 65  1  0  0  0  0
 65 66  1  0  0  0  0
 66 67  1  0  0  0  0
 66 68  1  0  0  0  0
 66 69  1  0  0  0  0
 65 70  1  0  0  0  0
 70 71  1  0  0  0  0
 70 72  1  0  0  0  0
 70 73  1  0  0  0  0
 65 74  1  0  0  0  0
 63 75  1  0  0  0  0
 74 75  1  0  0  0  0
 74 76  1  0  0  0  0
 76 77  1  0  0  0  0
 76 78  1  0  0  0  0
 76 79  1  0  0  0  0
 74 80  1  0  0  0  0
 80 81  1  0  0  0  0
 80 82  1  0  0  0  0
 80 83  1  0  0  0  0
  4 84  1  0  0  0  0
 14 85  1  0  0  0  0
 19 86  1  0  0  0  0
 20 86  1  0  0  0  0
 86 87  4  0  0  0  0
 86 88  4  0  0  0  0
 87 89  4  0  0  0  0
 87 90  1  0  0  0  0
 88 91  4  0  0  0  0
 88 92  1  0  0  0  0
 89 93  4  0  0  0  0
 89 94  4  0  0  0  0
 91 94  4  0  0  0  0
 90 95  4  0  0  0  0
 93 95  2  0  0  0  0
 90 96  1  0  0  0  0
 91 97  1  0  0  0  0
 94 98  1  0  0  0  0
 95 99  1  0  0  0  0
 99100  1  0  0  0  0
 99101  1  0  0  0  0
 99102  1  0  0  0  0
M  END
