
  xtb     01142215243D
 xtb: 6.4.1 (1a32961)
 12 12  0     0  0            999 V2000
    1.6815   -1.9011    0.0007 C   0  0  0  0  0  0  0  0  0  0  0  0
    2.6418   -0.9028   -0.0004 C   0  0  0  0  0  0  0  0  0  0  0  0
    2.2215    0.4149   -0.0030 C   0  0  0  0  0  0  0  0  0  0  0  0
    3.1477    1.4017   -0.0041 F   0  0  0  0  0  0  0  0  0  0  0  0
    0.8845    0.7693   -0.0043 C   0  0  0  0  0  0  0  0  0  0  0  0
   -0.0480   -0.2539   -0.0030 C   0  0  0  0  0  0  0  0  0  0  0  0
   -1.9072    0.1918   -0.0060 Br  0  0  0  0  0  0  0  0  0  0  0  0
    0.3326   -1.5856   -0.0006 C   0  0  0  0  0  0  0  0  0  0  0  0
    1.9852   -2.9355    0.0028 H   0  0  0  0  0  0  0  0  0  0  0  0
    3.6952   -1.1303    0.0008 H   0  0  0  0  0  0  0  0  0  0  0  0
    0.5940    1.8075   -0.0064 H   0  0  0  0  0  0  0  0  0  0  0  0
   -0.4148   -2.3625    0.0002 H   0  0  0  0  0  0  0  0  0  0  0  0
  1  2  4  0  0  0  0
  2  3  4  0  0  0  0
  3  4  1  0  0  0  0
  3  5  4  0  0  0  0
  5  6  4  0  0  0  0
  6  7  1  0  0  0  0
  1  8  4  0  0  0  0
  6  8  4  0  0  0  0
  1  9  1  0  0  0  0
  2 10  1  0  0  0  0
  5 11  1  0  0  0  0
  8 12  1  0  0  0  0
M  END
