
  xtb     01142213563D
 xtb: 6.4.1 (1a32961)
109116  0     0  0            999 V2000
   -0.9742   -2.2555   -0.1405 N   0  0  0  0  0  0  0  0  0  0  0  0
   -2.2785   -1.9391   -0.1254 C   0  0  0  0  0  0  0  0  0  0  0  0
   -3.2571   -2.8617   -0.5139 C   0  0  0  0  0  0  0  0  0  0  0  0
   -2.8761   -4.1106   -0.9571 C   0  0  0  0  0  0  0  0  0  0  0  0
   -1.5182   -4.4100   -1.0099 C   0  0  0  0  0  0  0  0  0  0  0  0
   -0.6145   -3.4546   -0.5856 C   0  0  0  0  0  0  0  0  0  0  0  0
    0.4494   -3.6392   -0.5999 H   0  0  0  0  0  0  0  0  0  0  0  0
   -1.1732   -5.3692   -1.3607 H   0  0  0  0  0  0  0  0  0  0  0  0
   -4.3031   -2.6096   -0.4464 H   0  0  0  0  0  0  0  0  0  0  0  0
   -2.6136   -0.5915    0.3241 C   0  0  0  0  0  0  0  0  0  0  0  0
   -1.6599    0.0758    1.0013 N   0  0  0  0  0  0  0  0  0  0  0  0
   -1.9339    1.3065    1.4262 C   0  0  0  0  0  0  0  0  0  0  0  0
   -3.1412    1.9402    1.2044 C   0  0  0  0  0  0  0  0  0  0  0  0
   -4.1248    1.2703    0.4839 C   0  0  0  0  0  0  0  0  0  0  0  0
   -3.8521   -0.0064    0.0385 C   0  0  0  0  0  0  0  0  0  0  0  0
   -4.5837   -0.5393   -0.5470 H   0  0  0  0  0  0  0  0  0  0  0  0
   -3.3079    2.9371    1.5797 H   0  0  0  0  0  0  0  0  0  0  0  0
   -1.1327    1.7972    1.9550 H   0  0  0  0  0  0  0  0  0  0  0  0
    0.4215   -0.8165    0.9133 Ir  0  0  0  0  0  0  0  0  0  0  0  0
    0.8726   -2.2303    1.5405 H   0  0  0  0  0  0  0  0  0  0  0  0
    0.4280    0.3941   -0.7682 B   0  0  0  0  0  0  0  0  0  0  0  0
    0.0535   -0.1215   -1.9972 O   0  0  0  0  0  0  0  0  0  0  0  0
   -0.2766    0.9354   -2.9033 C   0  0  0  0  0  0  0  0  0  0  0  0
    0.2926    0.6170   -4.2858 C   0  0  0  0  0  0  0  0  0  0  0  0
    1.3616    0.4366   -4.2387 H   0  0  0  0  0  0  0  0  0  0  0  0
    0.0924    1.4354   -4.9722 H   0  0  0  0  0  0  0  0  0  0  0  0
   -0.1857   -0.2842   -4.6627 H   0  0  0  0  0  0  0  0  0  0  0  0
   -1.8087    0.9786   -3.0019 C   0  0  0  0  0  0  0  0  0  0  0  0
   -2.1373    1.7415   -3.7013 H   0  0  0  0  0  0  0  0  0  0  0  0
   -2.1606    0.0079   -3.3450 H   0  0  0  0  0  0  0  0  0  0  0  0
   -2.2447    1.1658   -2.0235 H   0  0  0  0  0  0  0  0  0  0  0  0
    0.3318    2.2026   -2.2050 C   0  0  0  0  0  0  0  0  0  0  0  0
    0.5374    1.7609   -0.8575 O   0  0  0  0  0  0  0  0  0  0  0  0
    1.7019    2.6015   -2.7672 C   0  0  0  0  0  0  0  0  0  0  0  0
    2.3848    1.7586   -2.7113 H   0  0  0  0  0  0  0  0  0  0  0  0
    1.6195    2.9471   -3.7934 H   0  0  0  0  0  0  0  0  0  0  0  0
    2.1092    3.4029   -2.1552 H   0  0  0  0  0  0  0  0  0  0  0  0
   -0.5775    3.4319   -2.1976 C   0  0  0  0  0  0  0  0  0  0  0  0
   -1.4963    3.2363   -1.6538 H   0  0  0  0  0  0  0  0  0  0  0  0
   -0.0606    4.2480   -1.6991 H   0  0  0  0  0  0  0  0  0  0  0  0
   -0.8120    3.7328   -3.2152 H   0  0  0  0  0  0  0  0  0  0  0  0
    1.4716    0.6761    1.9238 B   0  0  0  0  0  0  0  0  0  0  0  0
    2.7866    0.6902    2.3484 O   0  0  0  0  0  0  0  0  0  0  0  0
    3.1751    2.0557    2.5689 C   0  0  0  0  0  0  0  0  0  0  0  0
    4.2304    2.1592    3.6651 C   0  0  0  0  0  0  0  0  0  0  0  0
    3.9305    1.5920    4.5403 H   0  0  0  0  0  0  0  0  0  0  0  0
    5.1738    1.7641    3.2983 H   0  0  0  0  0  0  0  0  0  0  0  0
    4.3725    3.2014    3.9399 H   0  0  0  0  0  0  0  0  0  0  0  0
    3.7529    2.5589    1.2408 C   0  0  0  0  0  0  0  0  0  0  0  0
    4.1404    3.5697    1.3310 H   0  0  0  0  0  0  0  0  0  0  0  0
    4.5515    1.8843    0.9439 H   0  0  0  0  0  0  0  0  0  0  0  0
    2.9821    2.5065    0.4759 H   0  0  0  0  0  0  0  0  0  0  0  0
    1.8124    2.7317    2.9132 C   0  0  0  0  0  0  0  0  0  0  0  0
    0.8813    1.8822    2.2303 O   0  0  0  0  0  0  0  0  0  0  0  0
    1.6611    4.1653    2.4118 C   0  0  0  0  0  0  0  0  0  0  0  0
    1.6482    4.1835    1.3273 H   0  0  0  0  0  0  0  0  0  0  0  0
    0.7218    4.5769    2.7722 H   0  0  0  0  0  0  0  0  0  0  0  0
    2.4790    4.7793    2.7794 H   0  0  0  0  0  0  0  0  0  0  0  0
    1.4841    2.6629    4.4101 C   0  0  0  0  0  0  0  0  0  0  0  0
    1.6009    1.6416    4.7657 H   0  0  0  0  0  0  0  0  0  0  0  0
    2.1232    3.3297    4.9814 H   0  0  0  0  0  0  0  0  0  0  0  0
    0.4469    2.9550    4.5565 H   0  0  0  0  0  0  0  0  0  0  0  0
    2.2782   -1.3309    0.1741 B   0  0  0  0  0  0  0  0  0  0  0  0
    2.3906   -2.5783   -0.4204 O   0  0  0  0  0  0  0  0  0  0  0  0
    3.7128   -2.7800   -0.9268 C   0  0  0  0  0  0  0  0  0  0  0  0
    4.4374   -3.7040    0.0590 C   0  0  0  0  0  0  0  0  0  0  0  0
    4.3876   -3.2702    1.0526 H   0  0  0  0  0  0  0  0  0  0  0  0
    3.9170   -4.6583    0.0894 H   0  0  0  0  0  0  0  0  0  0  0  0
    5.4682   -3.8715   -0.2365 H   0  0  0  0  0  0  0  0  0  0  0  0
    3.6344   -3.4645   -2.2921 C   0  0  0  0  0  0  0  0  0  0  0  0
    3.2374   -4.4678   -2.1599 H   0  0  0  0  0  0  0  0  0  0  0  0
    4.6246   -3.5358   -2.7334 H   0  0  0  0  0  0  0  0  0  0  0  0
    2.9723   -2.9257   -2.9615 H   0  0  0  0  0  0  0  0  0  0  0  0
    4.2907   -1.3231   -0.9450 C   0  0  0  0  0  0  0  0  0  0  0  0
    3.4274   -0.6175   -0.0409 O   0  0  0  0  0  0  0  0  0  0  0  0
    5.7389   -1.1971   -0.4793 C   0  0  0  0  0  0  0  0  0  0  0  0
    6.3877   -1.8010   -1.1078 H   0  0  0  0  0  0  0  0  0  0  0  0
    6.0458   -0.1571   -0.5528 H   0  0  0  0  0  0  0  0  0  0  0  0
    5.8339   -1.5073    0.5550 H   0  0  0  0  0  0  0  0  0  0  0  0
    4.1371   -0.6468   -2.3141 C   0  0  0  0  0  0  0  0  0  0  0  0
    3.0947   -0.6897   -2.6218 H   0  0  0  0  0  0  0  0  0  0  0  0
    4.4231    0.3979   -2.2165 H   0  0  0  0  0  0  0  0  0  0  0  0
    4.7669   -1.1191   -3.0621 H   0  0  0  0  0  0  0  0  0  0  0  0
   -3.6170   -4.8381   -1.2525 H   0  0  0  0  0  0  0  0  0  0  0  0
   -5.0742    1.7378    0.2697 H   0  0  0  0  0  0  0  0  0  0  0  0
    0.2359   -1.6814    2.9603 C   0  0  0  0  0  0  0  0  0  0  0  0
   -0.9746   -1.6576    3.6020 C   0  0  0  0  0  0  0  0  0  0  0  0
    1.2095   -1.6744    3.9521 N   0  0  0  0  0  0  0  0  0  0  0  0
   -0.7450   -1.5908    5.0020 C   0  0  0  0  0  0  0  0  0  0  0  0
   -1.9411   -1.6750    3.1357 H   0  0  0  0  0  0  0  0  0  0  0  0
    0.5994   -1.5875    5.1901 C   0  0  0  0  0  0  0  0  0  0  0  0
    2.5587   -1.9357    3.7658 C   0  0  0  0  0  0  0  0  0  0  0  0
   -1.4960   -1.5457    5.7672 H   0  0  0  0  0  0  0  0  0  0  0  0
    1.1844   -1.5659    6.0868 H   0  0  0  0  0  0  0  0  0  0  0  0
    2.9852   -2.5405    2.8135 O   0  0  0  0  0  0  0  0  0  0  0  0
    3.2680   -1.5120    4.8032 O   0  0  0  0  0  0  0  0  0  0  0  0
    4.6982   -1.7997    4.8874 C   0  0  0  0  0  0  0  0  0  0  0  0
    5.1719   -0.9691    6.0808 C   0  0  0  0  0  0  0  0  0  0  0  0
    4.8862   -3.2915    5.1672 C   0  0  0  0  0  0  0  0  0  0  0  0
    5.4242   -1.3783    3.6087 C   0  0  0  0  0  0  0  0  0  0  0  0
    4.5592   -1.1861    6.9516 H   0  0  0  0  0  0  0  0  0  0  0  0
    5.0935    0.0898    5.8543 H   0  0  0  0  0  0  0  0  0  0  0  0
    6.2063   -1.2098    6.3061 H   0  0  0  0  0  0  0  0  0  0  0  0
    4.4034   -3.5668    6.1023 H   0  0  0  0  0  0  0  0  0  0  0  0
    5.9465   -3.5163    5.2348 H   0  0  0  0  0  0  0  0  0  0  0  0
    4.4524   -3.8789    4.3615 H   0  0  0  0  0  0  0  0  0  0  0  0
    4.8897   -0.5600    3.1324 H   0  0  0  0  0  0  0  0  0  0  0  0
    5.4640   -2.2023    2.9025 H   0  0  0  0  0  0  0  0  0  0  0  0
    6.4372   -1.0655    3.8465 H   0  0  0  0  0  0  0  0  0  0  0  0
  1  2  4  0  0  0  0
  2  3  4  0  0  0  0
  3  4  4  0  0  0  0
  4  5  4  0  0  0  0
  1  6  4  0  0  0  0
  5  6  4  0  0  0  0
  6  7  1  0  0  0  0
  5  8  1  0  0  0  0
  3  9  1  0  0  0  0
  2 10  1  0  0  0  0
 10 11  4  0  0  0  0
 11 12  4  0  0  0  0
 12 13  4  0  0  0  0
 13 14  4  0  0  0  0
 10 15  4  0  0  0  0
 14 15  4  0  0  0  0
 15 16  1  0  0  0  0
 13 17  1  0  0  0  0
 12 18  1  0  0  0  0
  1 19  1  0  0  0  0
 11 19  1  0  0  0  0
 19 20  1  0  0  0  0
 19 21  1  0  0  0  0
 21 22  1  0  0  0  0
 22 23  1  0  0  0  0
 23 24  1  0  0  0  0
 24 25  1  0  0  0  0
 24 26  1  0  0  0  0
 24 27  1  0  0  0  0
 23 28  1  0  0  0  0
 28 29  1  0  0  0  0
 28 30  1  0  0  0  0
 28 31  1  0  0  0  0
 23 32  1  0  0  0  0
 21 33  1  0  0  0  0
 32 33  1  0  0  0  0
 32 34  1  0  0  0  0
 34 35  1  0  0  0  0
 34 36  1  0  0  0  0
 34 37  1  0  0  0  0
 32 38  1  0  0  0  0
 38 39  1  0  0  0  0
 38 40  1  0  0  0  0
 38 41  1  0  0  0  0
 19 42  1  0  0  0  0
 42 43  1  0  0  0  0
 43 44  1  0  0  0  0
 44 45  1  0  0  0  0
 45 46  1  0  0  0  0
 45 47  1  0  0  0  0
 45 48  1  0  0  0  0
 44 49  1  0  0  0  0
 49 50  1  0  0  0  0
 49 51  1  0  0  0  0
 49 52  1  0  0  0  0
 44 53  1  0  0  0  0
 42 54  1  0  0  0  0
 53 54  1  0  0  0  0
 53 55  1  0  0  0  0
 55 56  1  0  0  0  0
 55 57  1  0  0  0  0
 55 58  1  0  0  0  0
 53 59  1  0  0  0  0
 59 60  1  0  0  0  0
 59 61  1  0  0  0  0
 59 62  1  0  0  0  0
 19 63  1  0  0  0  0
 63 64  1  0  0  0  0
 64 65  1  0  0  0  0
 65 66  1  0  0  0  0
 66 67  1  0  0  0  0
 66 68  1  0  0  0  0
 66 69  1  0  0  0  0
 65 70  1  0  0  0  0
 70 71  1  0  0  0  0
 70 72  1  0  0  0  0
 70 73  1  0  0  0  0
 65 74  1  0  0  0  0
 63 75  1  0  0  0  0
 74 75  1  0  0  0  0
 74 76  1  0  0  0  0
 76 77  1  0  0  0  0
 76 78  1  0  0  0  0
 76 79  1  0  0  0  0
 74 80  1  0  0  0  0
 80 81  1  0  0  0  0
 80 82  1  0  0  0  0
 80 83  1  0  0  0  0
  4 84  1  0  0  0  0
 14 85  1  0  0  0  0
 19 86  1  0  0  0  0
 20 86  1  0  0  0  0
 86 87  2  0  0  0  0
 86 88  1  0  0  0  0
 87 89  4  0  0  0  0
 87 90  1  0  0  0  0
 88 91  1  0  0  0  0
 89 91  2  0  0  0  0
 88 92  1  0  0  0  0
 89 93  1  0  0  0  0
 91 94  1  0  0  0  0
 92 95  2  0  0  0  0
 92 96  1  0  0  0  0
 96 97  1  0  0  0  0
 97 98  1  0  0  0  0
 97 99  1  0  0  0  0
 97100  1  0  0  0  0
 98101  1  0  0  0  0
 98102  1  0  0  0  0
 98103  1  0  0  0  0
 99104  1  0  0  0  0
 99105  1  0  0  0  0
 99106  1  0  0  0  0
100107  1  0  0  0  0
100108  1  0  0  0  0
100109  1  0  0  0  0
M  END
