
  xtb     01142213473D
 xtb: 6.4.1 (1a32961)
106114  0     0  0            999 V2000
   -0.9535   -2.1825   -0.2254 N   0  0  0  0  0  0  0  0  0  0  0  0
   -2.2467   -1.8267   -0.2722 C   0  0  0  0  0  0  0  0  0  0  0  0
   -3.1572   -2.5274   -1.0711 C   0  0  0  0  0  0  0  0  0  0  0  0
   -2.7269   -3.6086   -1.8111 C   0  0  0  0  0  0  0  0  0  0  0  0
   -1.3867   -3.9723   -1.7408 C   0  0  0  0  0  0  0  0  0  0  0  0
   -0.5458   -3.2246   -0.9393 C   0  0  0  0  0  0  0  0  0  0  0  0
    0.5044   -3.4635   -0.8522 H   0  0  0  0  0  0  0  0  0  0  0  0
   -1.0081   -4.8149   -2.2962 H   0  0  0  0  0  0  0  0  0  0  0  0
   -4.1910   -2.2281   -1.1203 H   0  0  0  0  0  0  0  0  0  0  0  0
   -2.6384   -0.6815    0.5476 C   0  0  0  0  0  0  0  0  0  0  0  0
   -1.6497   -0.0340    1.1898 N   0  0  0  0  0  0  0  0  0  0  0  0
   -1.9544    1.0150    1.9466 C   0  0  0  0  0  0  0  0  0  0  0  0
   -3.2456    1.4734    2.1259 C   0  0  0  0  0  0  0  0  0  0  0  0
   -4.2809    0.8074    1.4804 C   0  0  0  0  0  0  0  0  0  0  0  0
   -3.9704   -0.2740    0.6820 C   0  0  0  0  0  0  0  0  0  0  0  0
   -4.7611   -0.8041    0.1784 H   0  0  0  0  0  0  0  0  0  0  0  0
   -3.4372    2.3236    2.7606 H   0  0  0  0  0  0  0  0  0  0  0  0
   -1.1149    1.5010    2.4195 H   0  0  0  0  0  0  0  0  0  0  0  0
    0.4215   -0.8165    0.9133 Ir  0  0  0  0  0  0  0  0  0  0  0  0
    0.8726   -2.2303    1.5405 H   0  0  0  0  0  0  0  0  0  0  0  0
    0.2667    0.4614   -0.7224 B   0  0  0  0  0  0  0  0  0  0  0  0
   -0.2878   -0.0006   -1.9085 O   0  0  0  0  0  0  0  0  0  0  0  0
   -0.7396    1.1026   -2.7005 C   0  0  0  0  0  0  0  0  0  0  0  0
   -0.4566    0.8297   -4.1762 C   0  0  0  0  0  0  0  0  0  0  0  0
    0.5869    0.5771   -4.3331 H   0  0  0  0  0  0  0  0  0  0  0  0
   -0.7149    1.7005   -4.7732 H   0  0  0  0  0  0  0  0  0  0  0  0
   -1.0626   -0.0120   -4.5034 H   0  0  0  0  0  0  0  0  0  0  0  0
   -2.2586    1.2088   -2.4963 C   0  0  0  0  0  0  0  0  0  0  0  0
   -2.6846    1.9959   -3.1113 H   0  0  0  0  0  0  0  0  0  0  0  0
   -2.7131    0.2584   -2.7702 H   0  0  0  0  0  0  0  0  0  0  0  0
   -2.4850    1.3999   -1.4495 H   0  0  0  0  0  0  0  0  0  0  0  0
    0.0394    2.3120   -2.0831 C   0  0  0  0  0  0  0  0  0  0  0  0
    0.3828    1.8305   -0.7774 O   0  0  0  0  0  0  0  0  0  0  0  0
    1.3515    2.6071   -2.8202 C   0  0  0  0  0  0  0  0  0  0  0  0
    1.9596    1.7069   -2.8555 H   0  0  0  0  0  0  0  0  0  0  0  0
    1.1628    2.9730   -3.8253 H   0  0  0  0  0  0  0  0  0  0  0  0
    1.9039    3.3626   -2.2666 H   0  0  0  0  0  0  0  0  0  0  0  0
   -0.7675    3.6037   -1.9577 C   0  0  0  0  0  0  0  0  0  0  0  0
   -1.6102    3.4773   -1.2851 H   0  0  0  0  0  0  0  0  0  0  0  0
   -0.1276    4.3835   -1.5518 H   0  0  0  0  0  0  0  0  0  0  0  0
   -1.1256    3.9176   -2.9348 H   0  0  0  0  0  0  0  0  0  0  0  0
    1.5165    0.7389    1.7968 B   0  0  0  0  0  0  0  0  0  0  0  0
    2.8757    0.9173    1.8054 O   0  0  0  0  0  0  0  0  0  0  0  0
    3.1812    2.2899    2.0715 C   0  0  0  0  0  0  0  0  0  0  0  0
    4.4612    2.3893    2.8967 C   0  0  0  0  0  0  0  0  0  0  0  0
    4.3969    1.7798    3.7917 H   0  0  0  0  0  0  0  0  0  0  0  0
    5.2885    2.0199    2.2968 H   0  0  0  0  0  0  0  0  0  0  0  0
    4.6548    3.4240    3.1671 H   0  0  0  0  0  0  0  0  0  0  0  0
    3.4006    2.9510    0.7052 C   0  0  0  0  0  0  0  0  0  0  0  0
    3.6669    3.9995    0.8034 H   0  0  0  0  0  0  0  0  0  0  0  0
    4.2010    2.4188    0.1986 H   0  0  0  0  0  0  0  0  0  0  0  0
    2.4999    2.8342    0.1092 H   0  0  0  0  0  0  0  0  0  0  0  0
    1.8827    2.7979    2.7833 C   0  0  0  0  0  0  0  0  0  0  0  0
    0.9035    1.8349    2.3678 O   0  0  0  0  0  0  0  0  0  0  0  0
    1.4194    4.1906    2.3591 C   0  0  0  0  0  0  0  0  0  0  0  0
    1.1437    4.1921    1.3099 H   0  0  0  0  0  0  0  0  0  0  0  0
    0.5454    4.4702    2.9423 H   0  0  0  0  0  0  0  0  0  0  0  0
    2.2066    4.9184    2.5351 H   0  0  0  0  0  0  0  0  0  0  0  0
    1.9767    2.7341    4.3114 C   0  0  0  0  0  0  0  0  0  0  0  0
    2.2853    1.7384    4.6182 H   0  0  0  0  0  0  0  0  0  0  0  0
    2.6807    3.4707    4.6869 H   0  0  0  0  0  0  0  0  0  0  0  0
    0.9951    2.9341    4.7353 H   0  0  0  0  0  0  0  0  0  0  0  0
    2.2782   -1.3309    0.1741 B   0  0  0  0  0  0  0  0  0  0  0  0
    2.5718   -2.6705   -0.0519 O   0  0  0  0  0  0  0  0  0  0  0  0
    3.7213   -2.8210   -0.8935 C   0  0  0  0  0  0  0  0  0  0  0  0
    4.8451   -3.4184   -0.0403 C   0  0  0  0  0  0  0  0  0  0  0  0
    5.0604   -2.7665    0.7998 H   0  0  0  0  0  0  0  0  0  0  0  0
    4.5111   -4.3759    0.3525 H   0  0  0  0  0  0  0  0  0  0  0  0
    5.7436   -3.5719   -0.6298 H   0  0  0  0  0  0  0  0  0  0  0  0
    3.3804   -3.8091   -2.0122 C   0  0  0  0  0  0  0  0  0  0  0  0
    3.1638   -4.7772   -1.5672 H   0  0  0  0  0  0  0  0  0  0  0  0
    4.2216   -3.9171   -2.6909 H   0  0  0  0  0  0  0  0  0  0  0  0
    2.5054   -3.4853   -2.5662 H   0  0  0  0  0  0  0  0  0  0  0  0
    4.0005   -1.3496   -1.3716 C   0  0  0  0  0  0  0  0  0  0  0  0
    3.1784   -0.5556   -0.5077 O   0  0  0  0  0  0  0  0  0  0  0  0
    5.4548   -0.8967   -1.2446 C   0  0  0  0  0  0  0  0  0  0  0  0
    6.1023   -1.5270   -1.8476 H   0  0  0  0  0  0  0  0  0  0  0  0
    5.5333    0.1285   -1.5966 H   0  0  0  0  0  0  0  0  0  0  0  0
    5.7760   -0.9205   -0.2092 H   0  0  0  0  0  0  0  0  0  0  0  0
    3.5167   -1.0770   -2.8035 C   0  0  0  0  0  0  0  0  0  0  0  0
    2.4484   -1.2674   -2.8741 H   0  0  0  0  0  0  0  0  0  0  0  0
    3.6855   -0.0263   -3.0275 H   0  0  0  0  0  0  0  0  0  0  0  0
    4.0550   -1.6810   -3.5276 H   0  0  0  0  0  0  0  0  0  0  0  0
   -3.4193   -4.1581   -2.4311 H   0  0  0  0  0  0  0  0  0  0  0  0
   -5.3056    1.1249    1.6003 H   0  0  0  0  0  0  0  0  0  0  0  0
    0.2359   -1.6814    2.9603 C   0  0  0  0  0  0  0  0  0  0  0  0
   -1.3775   -2.2441    3.3118 S   0  0  0  0  0  0  0  0  0  0  0  0
    0.9747   -1.6327    4.1227 C   0  0  0  0  0  0  0  0  0  0  0  0
   -1.0663   -2.3208    5.0065 C   0  0  0  0  0  0  0  0  0  0  0  0
    0.2083   -1.9627    5.2817 C   0  0  0  0  0  0  0  0  0  0  0  0
    2.3992   -1.3110    4.2534 C   0  0  0  0  0  0  0  0  0  0  0  0
   -1.8430   -2.6256    5.6792 H   0  0  0  0  0  0  0  0  0  0  0  0
    0.6196   -1.9667    6.2764 H   0  0  0  0  0  0  0  0  0  0  0  0
    3.3473   -1.7596    3.3354 C   0  0  0  0  0  0  0  0  0  0  0  0
    2.8534   -0.6012    5.3642 C   0  0  0  0  0  0  0  0  0  0  0  0
    4.6880   -1.4961    3.5251 C   0  0  0  0  0  0  0  0  0  0  0  0
    3.0245   -2.3216    2.4755 H   0  0  0  0  0  0  0  0  0  0  0  0
    4.1998   -0.3378    5.5456 C   0  0  0  0  0  0  0  0  0  0  0  0
    2.1446   -0.2385    6.0961 H   0  0  0  0  0  0  0  0  0  0  0  0
    5.1413   -0.7807    4.6280 C   0  0  0  0  0  0  0  0  0  0  0  0
    5.4111   -1.8557    2.8069 H   0  0  0  0  0  0  0  0  0  0  0  0
    4.5186    0.2236    6.4138 H   0  0  0  0  0  0  0  0  0  0  0  0
    6.6053   -0.5073    4.8056 C   0  0  0  0  0  0  0  0  0  0  0  0
    6.9946    0.0319    3.9434 H   0  0  0  0  0  0  0  0  0  0  0  0
    7.1573   -1.4428    4.8899 H   0  0  0  0  0  0  0  0  0  0  0  0
    6.7867    0.0854    5.6985 H   0  0  0  0  0  0  0  0  0  0  0  0
  1  2  4  0  0  0  0
  2  3  4  0  0  0  0
  3  4  4  0  0  0  0
  4  5  4  0  0  0  0
  1  6  4  0  0  0  0
  5  6  4  0  0  0  0
  6  7  1  0  0  0  0
  5  8  1  0  0  0  0
  3  9  1  0  0  0  0
  2 10  1  0  0  0  0
 10 11  4  0  0  0  0
 11 12  4  0  0  0  0
 12 13  4  0  0  0  0
 13 14  4  0  0  0  0
 10 15  4  0  0  0  0
 14 15  4  0  0  0  0
 15 16  1  0  0  0  0
 13 17  1  0  0  0  0
 12 18  1  0  0  0  0
  1 19  1  0  0  0  0
 11 19  1  0  0  0  0
 19 20  1  0  0  0  0
 19 21  1  0  0  0  0
 21 22  1  0  0  0  0
 22 23  1  0  0  0  0
 23 24  1  0  0  0  0
 24 25  1  0  0  0  0
 24 26  1  0  0  0  0
 24 27  1  0  0  0  0
 23 28  1  0  0  0  0
 28 29  1  0  0  0  0
 28 30  1  0  0  0  0
 28 31  1  0  0  0  0
 23 32  1  0  0  0  0
 21 33  1  0  0  0  0
 32 33  1  0  0  0  0
 32 34  1  0  0  0  0
 34 35  1  0  0  0  0
 34 36  1  0  0  0  0
 34 37  1  0  0  0  0
 32 38  1  0  0  0  0
 38 39  1  0  0  0  0
 38 40  1  0  0  0  0
 38 41  1  0  0  0  0
 19 42  1  0  0  0  0
 42 43  1  0  0  0  0
 43 44  1  0  0  0  0
 44 45  1  0  0  0  0
 45 46  1  0  0  0  0
 45 47  1  0  0  0  0
 45 48  1  0  0  0  0
 44 49  1  0  0  0  0
 49 50  1  0  0  0  0
 49 51  1  0  0  0  0
 49 52  1  0  0  0  0
 44 53  1  0  0  0  0
 42 54  1  0  0  0  0
 53 54  1  0  0  0  0
 53 55  1  0  0  0  0
 55 56  1  0  0  0  0
 55 57  1  0  0  0  0
 55 58  1  0  0  0  0
 53 59  1  0  0  0  0
 59 60  1  0  0  0  0
 59 61  1  0  0  0  0
 59 62  1  0  0  0  0
 19 63  1  0  0  0  0
 63 64  1  0  0  0  0
 64 65  1  0  0  0  0
 65 66  1  0  0  0  0
 66 67  1  0  0  0  0
 66 68  1  0  0  0  0
 66 69  1  0  0  0  0
 65 70  1  0  0  0  0
 70 71  1  0  0  0  0
 70 72  1  0  0  0  0
 70 73  1  0  0  0  0
 65 74  1  0  0  0  0
 63 75  1  0  0  0  0
 74 75  1  0  0  0  0
 74 76  1  0  0  0  0
 76 77  1  0  0  0  0
 76 78  1  0  0  0  0
 76 79  1  0  0  0  0
 74 80  1  0  0  0  0
 80 81  1  0  0  0  0
 80 82  1  0  0  0  0
 80 83  1  0  0  0  0
  4 84  1  0  0  0  0
 14 85  1  0  0  0  0
 19 86  1  0  0  0  0
 20 86  1  0  0  0  0
 86 87  1  0  0  0  0
 86 88  2  0  0  0  0
 87 89  1  0  0  0  0
 88 90  4  0  0  0  0
 89 90  2  0  0  0  0
 88 91  1  0  0  0  0
 89 92  1  0  0  0  0
 90 93  1  0  0  0  0
 91 94  4  0  0  0  0
 91 95  4  0  0  0  0
 94 96  4  0  0  0  0
 94 97  1  0  0  0  0
 95 98  4  0  0  0  0
 95 99  1  0  0  0  0
 96100  4  0  0  0  0
 98100  4  0  0  0  0
 96101  1  0  0  0  0
 98102  1  0  0  0  0
100103  1  0  0  0  0
103104  1  0  0  0  0
103105  1  0  0  0  0
103106  1  0  0  0  0
M  END
