
  xtb     01142213403D
 xtb: 6.4.1 (1a32961)
  9  9  0     0  0            999 V2000
    0.1169    1.2298   -0.0049 C   0  0  0  0  0  0  0  0  0  0  0  0
   -1.0863   -0.0009   -0.0104 S   0  0  0  0  0  0  0  0  0  0  0  0
    0.1248   -1.2239   -0.0050 C   0  0  0  0  0  0  0  0  0  0  0  0
    1.3760   -0.7007    0.0010 C   0  0  0  0  0  0  0  0  0  0  0  0
    1.3715    0.7146    0.0010 C   0  0  0  0  0  0  0  0  0  0  0  0
   -0.1844    2.2582   -0.0064 H   0  0  0  0  0  0  0  0  0  0  0  0
   -0.1701   -2.2542   -0.0067 H   0  0  0  0  0  0  0  0  0  0  0  0
    2.2717   -1.2955    0.0057 H   0  0  0  0  0  0  0  0  0  0  0  0
    2.2633    1.3152    0.0058 H   0  0  0  0  0  0  0  0  0  0  0  0
  1  2  1  0  0  0  0
  2  3  1  0  0  0  0
  3  4  2  0  0  0  0
  1  5  2  0  0  0  0
  4  5  4  0  0  0  0
  1  6  1  0  0  0  0
  3  7  1  0  0  0  0
  4  8  1  0  0  0  0
  5  9  1  0  0  0  0
M  END
