
  xtb     01142214213D
 xtb: 6.4.1 (1a32961)
110119  0     0  0            999 V2000
   -0.8883   -1.9778   -0.4334 N   0  0  0  0  0  0  0  0  0  0  0  0
   -2.1488   -1.5233   -0.5776 C   0  0  0  0  0  0  0  0  0  0  0  0
   -3.0224   -2.1080   -1.5047 C   0  0  0  0  0  0  0  0  0  0  0  0
   -2.5903   -3.1504   -2.2935 C   0  0  0  0  0  0  0  0  0  0  0  0
   -1.2803   -3.6015   -2.1417 C   0  0  0  0  0  0  0  0  0  0  0  0
   -0.4818   -2.9852   -1.2023 C   0  0  0  0  0  0  0  0  0  0  0  0
    0.5377   -3.3068   -1.0435 H   0  0  0  0  0  0  0  0  0  0  0  0
   -0.8985   -4.4141   -2.7380 H   0  0  0  0  0  0  0  0  0  0  0  0
   -4.0332   -1.7491   -1.6080 H   0  0  0  0  0  0  0  0  0  0  0  0
   -2.5305   -0.4036    0.2708 C   0  0  0  0  0  0  0  0  0  0  0  0
   -1.5925    0.0472    1.1328 N   0  0  0  0  0  0  0  0  0  0  0  0
   -1.8999    1.0670    1.9328 C   0  0  0  0  0  0  0  0  0  0  0  0
   -3.1264    1.6978    1.9280 C   0  0  0  0  0  0  0  0  0  0  0  0
   -4.0997    1.2539    1.0353 C   0  0  0  0  0  0  0  0  0  0  0  0
   -3.7934    0.1994    0.2037 C   0  0  0  0  0  0  0  0  0  0  0  0
   -4.5323   -0.1551   -0.4957 H   0  0  0  0  0  0  0  0  0  0  0  0
   -3.3218    2.5134    2.6053 H   0  0  0  0  0  0  0  0  0  0  0  0
   -1.1108    1.3821    2.5981 H   0  0  0  0  0  0  0  0  0  0  0  0
    0.4215   -0.8165    0.9133 Ir  0  0  0  0  0  0  0  0  0  0  0  0
    0.8726   -2.2303    1.5405 H   0  0  0  0  0  0  0  0  0  0  0  0
    0.4137    0.6922   -0.5336 B   0  0  0  0  0  0  0  0  0  0  0  0
   -0.2878    0.5170   -1.7145 O   0  0  0  0  0  0  0  0  0  0  0  0
   -0.3777    1.7601   -2.4187 C   0  0  0  0  0  0  0  0  0  0  0  0
   -0.2151    1.5197   -3.9174 C   0  0  0  0  0  0  0  0  0  0  0  0
    0.6788    0.9390   -4.1195 H   0  0  0  0  0  0  0  0  0  0  0  0
   -0.1616    2.4693   -4.4438 H   0  0  0  0  0  0  0  0  0  0  0  0
   -1.0732    0.9621   -4.2852 H   0  0  0  0  0  0  0  0  0  0  0  0
   -1.7780    2.3296   -2.1471 C   0  0  0  0  0  0  0  0  0  0  0  0
   -1.9404    3.2533   -2.6949 H   0  0  0  0  0  0  0  0  0  0  0  0
   -2.5189    1.5965   -2.4607 H   0  0  0  0  0  0  0  0  0  0  0  0
   -1.9099    2.5063   -1.0814 H   0  0  0  0  0  0  0  0  0  0  0  0
    0.7568    2.6082   -1.7571 C   0  0  0  0  0  0  0  0  0  0  0  0
    0.9113    1.9745   -0.4804 O   0  0  0  0  0  0  0  0  0  0  0  0
    2.0990    2.4636   -2.4848 C   0  0  0  0  0  0  0  0  0  0  0  0
    2.3560    1.4092   -2.5528 H   0  0  0  0  0  0  0  0  0  0  0  0
    2.0671    2.9143   -3.4725 H   0  0  0  0  0  0  0  0  0  0  0  0
    2.8687    2.9551   -1.8942 H   0  0  0  0  0  0  0  0  0  0  0  0
    0.4326    4.0891   -1.5715 C   0  0  0  0  0  0  0  0  0  0  0  0
   -0.4093    4.2269   -0.9000 H   0  0  0  0  0  0  0  0  0  0  0  0
    1.2956    4.5913   -1.1409 H   0  0  0  0  0  0  0  0  0  0  0  0
    0.2072    4.5434   -2.5330 H   0  0  0  0  0  0  0  0  0  0  0  0
    1.5554    0.6008    1.9473 B   0  0  0  0  0  0  0  0  0  0  0  0
    2.9232    0.7308    1.9850 O   0  0  0  0  0  0  0  0  0  0  0  0
    3.2834    1.9672    2.6180 C   0  0  0  0  0  0  0  0  0  0  0  0
    4.5209    1.7664    3.4901 C   0  0  0  0  0  0  0  0  0  0  0  0
    4.3724    0.9599    4.1998 H   0  0  0  0  0  0  0  0  0  0  0  0
    5.3669    1.5110    2.8571 H   0  0  0  0  0  0  0  0  0  0  0  0
    4.7494    2.6823    4.0285 H   0  0  0  0  0  0  0  0  0  0  0  0
    3.6059    2.9554    1.4903 C   0  0  0  0  0  0  0  0  0  0  0  0
    3.8702    3.9340    1.8798 H   0  0  0  0  0  0  0  0  0  0  0  0
    4.4437    2.5652    0.9164 H   0  0  0  0  0  0  0  0  0  0  0  0
    2.7483    3.0248    0.8259 H   0  0  0  0  0  0  0  0  0  0  0  0
    1.9808    2.3437    3.4011 C   0  0  0  0  0  0  0  0  0  0  0  0
    0.9746    1.5810    2.7222 O   0  0  0  0  0  0  0  0  0  0  0  0
    1.6095    3.8248    3.3557 C   0  0  0  0  0  0  0  0  0  0  0  0
    1.4055    4.1376    2.3372 H   0  0  0  0  0  0  0  0  0  0  0  0
    0.7123    3.9847    3.9487 H   0  0  0  0  0  0  0  0  0  0  0  0
    2.4145    4.4257    3.7701 H   0  0  0  0  0  0  0  0  0  0  0  0
    1.9962    1.8703    4.8602 C   0  0  0  0  0  0  0  0  0  0  0  0
    2.2174    0.8075    4.9070 H   0  0  0  0  0  0  0  0  0  0  0  0
    2.7220    2.4268    5.4453 H   0  0  0  0  0  0  0  0  0  0  0  0
    1.0071    2.0228    5.2860 H   0  0  0  0  0  0  0  0  0  0  0  0
    2.2782   -1.3309    0.1741 B   0  0  0  0  0  0  0  0  0  0  0  0
    3.1549   -2.2394    0.7276 O   0  0  0  0  0  0  0  0  0  0  0  0
    4.4144   -2.1969    0.0450 C   0  0  0  0  0  0  0  0  0  0  0  0
    5.3643   -1.3835    0.9307 C   0  0  0  0  0  0  0  0  0  0  0  0
    4.9127   -0.4169    1.1352 H   0  0  0  0  0  0  0  0  0  0  0  0
    5.4823   -1.9047    1.8776 H   0  0  0  0  0  0  0  0  0  0  0  0
    6.3393   -1.2646    0.4683 H   0  0  0  0  0  0  0  0  0  0  0  0
    4.9587   -3.6167   -0.1111 C   0  0  0  0  0  0  0  0  0  0  0  0
    5.1579   -4.0252    0.8761 H   0  0  0  0  0  0  0  0  0  0  0  0
    5.8840   -3.6014   -0.6802 H   0  0  0  0  0  0  0  0  0  0  0  0
    4.2408   -4.2643   -0.6032 H   0  0  0  0  0  0  0  0  0  0  0  0
    4.0564   -1.4713   -1.3000 C   0  0  0  0  0  0  0  0  0  0  0  0
    2.8041   -0.8376   -0.9988 O   0  0  0  0  0  0  0  0  0  0  0  0
    5.0608   -0.4086   -1.7429 C   0  0  0  0  0  0  0  0  0  0  0  0
    6.0445   -0.8500   -1.8769 H   0  0  0  0  0  0  0  0  0  0  0  0
    4.7350    0.0160   -2.6893 H   0  0  0  0  0  0  0  0  0  0  0  0
    5.1119    0.3917   -1.0129 H   0  0  0  0  0  0  0  0  0  0  0  0
    3.8063   -2.4403   -2.4638 C   0  0  0  0  0  0  0  0  0  0  0  0
    3.0701   -3.1873   -2.1803 H   0  0  0  0  0  0  0  0  0  0  0  0
    3.4060   -1.8780   -3.3040 H   0  0  0  0  0  0  0  0  0  0  0  0
    4.7265   -2.9282   -2.7703 H   0  0  0  0  0  0  0  0  0  0  0  0
   -3.2527   -3.6067   -3.0134 H   0  0  0  0  0  0  0  0  0  0  0  0
   -5.0711    1.7233    0.9945 H   0  0  0  0  0  0  0  0  0  0  0  0
    0.2359   -1.6814    2.9603 C   0  0  0  0  0  0  0  0  0  0  0  0
   -1.0456   -1.9264    3.4451 C   0  0  0  0  0  0  0  0  0  0  0  0
    1.2957   -1.7276    3.8614 C   0  0  0  0  0  0  0  0  0  0  0  0
   -1.2563   -2.0960    4.8062 C   0  0  0  0  0  0  0  0  0  0  0  0
   -1.8944   -1.9851    2.7787 H   0  0  0  0  0  0  0  0  0  0  0  0
    1.1069   -1.9415    5.2274 C   0  0  0  0  0  0  0  0  0  0  0  0
    2.2977   -1.6242    3.4772 H   0  0  0  0  0  0  0  0  0  0  0  0
   -0.2007   -2.0985    5.6971 C   0  0  0  0  0  0  0  0  0  0  0  0
   -2.2632   -2.2453    5.1727 H   0  0  0  0  0  0  0  0  0  0  0  0
    2.2637   -2.0459    6.1019 C   0  0  0  0  0  0  0  0  0  0  0  0
   -0.4005   -2.2277    6.7507 H   0  0  0  0  0  0  0  0  0  0  0  0
    2.1869   -2.5672    7.3732 N   0  0  0  0  0  0  0  0  0  0  0  0
    3.5740   -1.7141    5.8452 C   0  0  0  0  0  0  0  0  0  0  0  0
    3.4279   -2.5957    7.9336 C   0  0  0  0  0  0  0  0  0  0  0  0
    1.3533   -2.9363    7.7963 H   0  0  0  0  0  0  0  0  0  0  0  0
    4.3371   -2.0501    6.9909 C   0  0  0  0  0  0  0  0  0  0  0  0
    3.9553   -1.2832    4.9409 H   0  0  0  0  0  0  0  0  0  0  0  0
    3.8513   -3.0518    9.1758 C   0  0  0  0  0  0  0  0  0  0  0  0
    5.6923   -1.9634    7.3171 C   0  0  0  0  0  0  0  0  0  0  0  0
    5.1959   -2.9577    9.4673 C   0  0  0  0  0  0  0  0  0  0  0  0
    3.1528   -3.4687    9.8868 H   0  0  0  0  0  0  0  0  0  0  0  0
    6.1037   -2.4192    8.5488 C   0  0  0  0  0  0  0  0  0  0  0  0
    6.3985   -1.5514    6.6112 H   0  0  0  0  0  0  0  0  0  0  0  0
    5.5605   -3.3075   10.4224 H   0  0  0  0  0  0  0  0  0  0  0  0
    7.1490   -2.3658    8.8186 H   0  0  0  0  0  0  0  0  0  0  0  0
  1  2  4  0  0  0  0
  2  3  4  0  0  0  0
  3  4  4  0  0  0  0
  4  5  4  0  0  0  0
  1  6  4  0  0  0  0
  5  6  4  0  0  0  0
  6  7  1  0  0  0  0
  5  8  1  0  0  0  0
  3  9  1  0  0  0  0
  2 10  1  0  0  0  0
 10 11  4  0  0  0  0
 11 12  4  0  0  0  0
 12 13  4  0  0  0  0
 13 14  4  0  0  0  0
 10 15  4  0  0  0  0
 14 15  4  0  0  0  0
 15 16  1  0  0  0  0
 13 17  1  0  0  0  0
 12 18  1  0  0  0  0
  1 19  1  0  0  0  0
 11 19  1  0  0  0  0
 19 20  1  0  0  0  0
 19 21  1  0  0  0  0
 21 22  1  0  0  0  0
 22 23  1  0  0  0  0
 23 24  1  0  0  0  0
 24 25  1  0  0  0  0
 24 26  1  0  0  0  0
 24 27  1  0  0  0  0
 23 28  1  0  0  0  0
 28 29  1  0  0  0  0
 28 30  1  0  0  0  0
 28 31  1  0  0  0  0
 23 32  1  0  0  0  0
 21 33  1  0  0  0  0
 32 33  1  0  0  0  0
 32 34  1  0  0  0  0
 34 35  1  0  0  0  0
 34 36  1  0  0  0  0
 34 37  1  0  0  0  0
 32 38  1  0  0  0  0
 38 39  1  0  0  0  0
 38 40  1  0  0  0  0
 38 41  1  0  0  0  0
 19 42  1  0  0  0  0
 42 43  1  0  0  0  0
 43 44  1  0  0  0  0
 44 45  1  0  0  0  0
 45 46  1  0  0  0  0
 45 47  1  0  0  0  0
 45 48  1  0  0  0  0
 44 49  1  0  0  0  0
 49 50  1  0  0  0  0
 49 51  1  0  0  0  0
 49 52  1  0  0  0  0
 44 53  1  0  0  0  0
 42 54  1  0  0  0  0
 53 54  1  0  0  0  0
 53 55  1  0  0  0  0
 55 56  1  0  0  0  0
 55 57  1  0  0  0  0
 55 58  1  0  0  0  0
 53 59  1  0  0  0  0
 59 60  1  0  0  0  0
 59 61  1  0  0  0  0
 59 62  1  0  0  0  0
 19 63  1  0  0  0  0
 63 64  1  0  0  0  0
 64 65  1  0  0  0  0
 65 66  1  0  0  0  0
 66 67  1  0  0  0  0
 66 68  1  0  0  0  0
 66 69  1  0  0  0  0
 65 70  1  0  0  0  0
 70 71  1  0  0  0  0
 70 72  1  0  0  0  0
 70 73  1  0  0  0  0
 65 74  1  0  0  0  0
 63 75  1  0  0  0  0
 74 75  1  0  0  0  0
 74 76  1  0  0  0  0
 76 77  1  0  0  0  0
 76 78  1  0  0  0  0
 76 79  1  0  0  0  0
 74 80  1  0  0  0  0
 80 81  1  0  0  0  0
 80 82  1  0  0  0  0
 80 83  1  0  0  0  0
  4 84  1  0  0  0  0
 14 85  1  0  0  0  0
 19 86  1  0  0  0  0
 20 86  1  0  0  0  0
 86 87  4  0  0  0  0
 86 88  4  0  0  0  0
 87 89  4  0  0  0  0
 87 90  1  0  0  0  0
 88 91  4  0  0  0  0
 88 92  1  0  0  0  0
 89 93  4  0  0  0  0
 91 93  4  0  0  0  0
 89 94  1  0  0  0  0
 91 95  1  0  0  0  0
 93 96  1  0  0  0  0
 95 97  1  0  0  0  0
 95 98  2  0  0  0  0
 97 99  1  0  0  0  0
 97100  1  0  0  0  0
 98101  4  0  0  0  0
 99101  4  0  0  0  0
 98102  1  0  0  0  0
 99103  4  0  0  0  0
101104  4  0  0  0  0
103105  4  0  0  0  0
103106  1  0  0  0  0
104107  2  0  0  0  0
105107  4  0  0  0  0
104108  1  0  0  0  0
105109  1  0  0  0  0
107110  1  0  0  0  0
M  END
