
  xtb     01142213313D
 xtb: 6.4.1 (1a32961)
105112  0     0  0            999 V2000
   -0.8924   -2.0075   -0.4051 N   0  0  0  0  0  0  0  0  0  0  0  0
   -2.1491   -1.5495   -0.5613 C   0  0  0  0  0  0  0  0  0  0  0  0
   -3.0138   -2.1281   -1.4995 C   0  0  0  0  0  0  0  0  0  0  0  0
   -2.5773   -3.1732   -2.2833 C   0  0  0  0  0  0  0  0  0  0  0  0
   -1.2725   -3.6311   -2.1157 C   0  0  0  0  0  0  0  0  0  0  0  0
   -0.4813   -3.0171   -1.1680 C   0  0  0  0  0  0  0  0  0  0  0  0
    0.5350   -3.3431   -0.9978 H   0  0  0  0  0  0  0  0  0  0  0  0
   -0.8879   -4.4466   -2.7063 H   0  0  0  0  0  0  0  0  0  0  0  0
   -4.0205   -1.7628   -1.6174 H   0  0  0  0  0  0  0  0  0  0  0  0
   -2.5391   -0.4312    0.2882 C   0  0  0  0  0  0  0  0  0  0  0  0
   -1.6018    0.0349    1.1407 N   0  0  0  0  0  0  0  0  0  0  0  0
   -1.9181    1.0471    1.9451 C   0  0  0  0  0  0  0  0  0  0  0  0
   -3.1552    1.6581    1.9529 C   0  0  0  0  0  0  0  0  0  0  0  0
   -4.1278    1.2000    1.0681 C   0  0  0  0  0  0  0  0  0  0  0  0
   -3.8119    0.1508    0.2325 C   0  0  0  0  0  0  0  0  0  0  0  0
   -4.5520   -0.2158   -0.4590 H   0  0  0  0  0  0  0  0  0  0  0  0
   -3.3580    2.4689    2.6336 H   0  0  0  0  0  0  0  0  0  0  0  0
   -1.1272    1.3771    2.6003 H   0  0  0  0  0  0  0  0  0  0  0  0
    0.4215   -0.8165    0.9133 Ir  0  0  0  0  0  0  0  0  0  0  0  0
    0.8726   -2.2303    1.5405 H   0  0  0  0  0  0  0  0  0  0  0  0
    0.4108    0.6419   -0.5859 B   0  0  0  0  0  0  0  0  0  0  0  0
   -0.3265    0.4463   -1.7415 O   0  0  0  0  0  0  0  0  0  0  0  0
   -0.4083    1.6683   -2.4829 C   0  0  0  0  0  0  0  0  0  0  0  0
   -0.2882    1.3760   -3.9766 C   0  0  0  0  0  0  0  0  0  0  0  0
    0.5871    0.7685   -4.1815 H   0  0  0  0  0  0  0  0  0  0  0  0
   -0.2267    2.3065   -4.5351 H   0  0  0  0  0  0  0  0  0  0  0  0
   -1.1673    0.8269   -4.3052 H   0  0  0  0  0  0  0  0  0  0  0  0
   -1.7897    2.2744   -2.1955 C   0  0  0  0  0  0  0  0  0  0  0  0
   -1.9449    3.1875   -2.7626 H   0  0  0  0  0  0  0  0  0  0  0  0
   -2.5526    1.5499   -2.4745 H   0  0  0  0  0  0  0  0  0  0  0  0
   -1.8937    2.4795   -1.1319 H   0  0  0  0  0  0  0  0  0  0  0  0
    0.7605    2.5132   -1.8776 C   0  0  0  0  0  0  0  0  0  0  0  0
    0.9455    1.9089   -0.5910 O   0  0  0  0  0  0  0  0  0  0  0  0
    2.0765    2.3306   -2.6434 C   0  0  0  0  0  0  0  0  0  0  0  0
    2.3176    1.2715   -2.6905 H   0  0  0  0  0  0  0  0  0  0  0  0
    2.0180    2.7548   -3.6415 H   0  0  0  0  0  0  0  0  0  0  0  0
    2.8713    2.8274   -2.0920 H   0  0  0  0  0  0  0  0  0  0  0  0
    0.4658    4.0032   -1.7152 C   0  0  0  0  0  0  0  0  0  0  0  0
   -0.3492    4.1688   -1.0175 H   0  0  0  0  0  0  0  0  0  0  0  0
    1.3511    4.5005   -1.3260 H   0  0  0  0  0  0  0  0  0  0  0  0
    0.2140    4.4407   -2.6780 H   0  0  0  0  0  0  0  0  0  0  0  0
    1.5463    0.6352    1.8997 B   0  0  0  0  0  0  0  0  0  0  0  0
    2.9145    0.7128    2.0277 O   0  0  0  0  0  0  0  0  0  0  0  0
    3.2839    2.0073    2.5260 C   0  0  0  0  0  0  0  0  0  0  0  0
    4.4678    1.8814    3.4825 C   0  0  0  0  0  0  0  0  0  0  0  0
    4.2610    1.1667    4.2711 H   0  0  0  0  0  0  0  0  0  0  0  0
    5.3371    1.5341    2.9299 H   0  0  0  0  0  0  0  0  0  0  0  0
    4.6958    2.8496    3.9203 H   0  0  0  0  0  0  0  0  0  0  0  0
    3.6950    2.8418    1.3071 C   0  0  0  0  0  0  0  0  0  0  0  0
    3.9765    3.8518    1.5899 H   0  0  0  0  0  0  0  0  0  0  0  0
    4.5439    2.3599    0.8273 H   0  0  0  0  0  0  0  0  0  0  0  0
    2.8721    2.8554    0.5969 H   0  0  0  0  0  0  0  0  0  0  0  0
    1.9538    2.5119    3.1800 C   0  0  0  0  0  0  0  0  0  0  0  0
    0.9609    1.7136    2.5237 O   0  0  0  0  0  0  0  0  0  0  0  0
    1.6477    3.9906    2.9540 C   0  0  0  0  0  0  0  0  0  0  0  0
    1.5083    4.1914    1.8972 H   0  0  0  0  0  0  0  0  0  0  0  0
    0.7286    4.2494    3.4740 H   0  0  0  0  0  0  0  0  0  0  0  0
    2.4554    4.6047    3.3427 H   0  0  0  0  0  0  0  0  0  0  0  0
    1.8624    2.1913    4.6774 C   0  0  0  0  0  0  0  0  0  0  0  0
    2.0067    1.1248    4.8283 H   0  0  0  0  0  0  0  0  0  0  0  0
    2.5943    2.7564    5.2464 H   0  0  0  0  0  0  0  0  0  0  0  0
    0.8658    2.4477    5.0301 H   0  0  0  0  0  0  0  0  0  0  0  0
    2.2782   -1.3309    0.1741 B   0  0  0  0  0  0  0  0  0  0  0  0
    3.1363   -2.2591    0.7257 O   0  0  0  0  0  0  0  0  0  0  0  0
    4.4094   -2.2167    0.0683 C   0  0  0  0  0  0  0  0  0  0  0  0
    5.3536   -1.4465    0.9980 C   0  0  0  0  0  0  0  0  0  0  0  0
    4.9087   -0.4831    1.2306 H   0  0  0  0  0  0  0  0  0  0  0  0
    5.4515   -2.0038    1.9264 H   0  0  0  0  0  0  0  0  0  0  0  0
    6.3369   -1.3217    0.5558 H   0  0  0  0  0  0  0  0  0  0  0  0
    4.9337   -3.6403   -0.1195 C   0  0  0  0  0  0  0  0  0  0  0  0
    5.0994   -4.0845    0.8585 H   0  0  0  0  0  0  0  0  0  0  0  0
    5.8741   -3.6237   -0.6633 H   0  0  0  0  0  0  0  0  0  0  0  0
    4.2184   -4.2588   -0.6510 H   0  0  0  0  0  0  0  0  0  0  0  0
    4.0905   -1.4462   -1.2622 C   0  0  0  0  0  0  0  0  0  0  0  0
    2.8319   -0.8179   -0.9758 O   0  0  0  0  0  0  0  0  0  0  0  0
    5.1090   -0.3716   -1.6399 C   0  0  0  0  0  0  0  0  0  0  0  0
    6.0944   -0.8114   -1.7661 H   0  0  0  0  0  0  0  0  0  0  0  0
    4.8078    0.0897   -2.5770 H   0  0  0  0  0  0  0  0  0  0  0  0
    5.1436    0.4007   -0.8795 H   0  0  0  0  0  0  0  0  0  0  0  0
    3.8720   -2.3729   -2.4658 C   0  0  0  0  0  0  0  0  0  0  0  0
    3.1169   -3.1192   -2.2352 H   0  0  0  0  0  0  0  0  0  0  0  0
    3.5105   -1.7775   -3.3008 H   0  0  0  0  0  0  0  0  0  0  0  0
    4.7970   -2.8623   -2.7552 H   0  0  0  0  0  0  0  0  0  0  0  0
   -3.2332   -3.6252   -3.0116 H   0  0  0  0  0  0  0  0  0  0  0  0
   -5.1069    1.6534    1.0359 H   0  0  0  0  0  0  0  0  0  0  0  0
    0.2359   -1.6814    2.9603 C   0  0  0  0  0  0  0  0  0  0  0  0
   -1.0514   -1.9825    3.4069 C   0  0  0  0  0  0  0  0  0  0  0  0
    1.2584   -1.7233    3.8981 C   0  0  0  0  0  0  0  0  0  0  0  0
   -1.3017   -2.1756    4.7488 C   0  0  0  0  0  0  0  0  0  0  0  0
   -1.8771   -2.0586    2.7151 H   0  0  0  0  0  0  0  0  0  0  0  0
    1.0474   -1.9952    5.2573 C   0  0  0  0  0  0  0  0  0  0  0  0
    2.2684   -1.6068    3.5388 H   0  0  0  0  0  0  0  0  0  0  0  0
   -0.2754   -2.1764    5.6967 C   0  0  0  0  0  0  0  0  0  0  0  0
   -2.3046   -2.3553    5.1059 H   0  0  0  0  0  0  0  0  0  0  0  0
    2.2434   -2.2877    6.0828 C   0  0  0  0  0  0  0  0  0  0  0  0
   -0.7164   -2.3145    6.9789 O   0  0  0  0  0  0  0  0  0  0  0  0
    2.3229   -3.3050    6.7509 O   0  0  0  0  0  0  0  0  0  0  0  0
    3.3825   -1.3046    6.0147 C   0  0  0  0  0  0  0  0  0  0  0  0
    0.1284   -2.0957    8.0854 C   0  0  0  0  0  0  0  0  0  0  0  0
    3.6828   -1.1472    4.9822 H   0  0  0  0  0  0  0  0  0  0  0  0
    4.2243   -1.6797    6.5913 H   0  0  0  0  0  0  0  0  0  0  0  0
    3.0578   -0.3488    6.4219 H   0  0  0  0  0  0  0  0  0  0  0  0
   -0.5398   -1.9363    8.9315 H   0  0  0  0  0  0  0  0  0  0  0  0
    0.7567   -1.2121    7.9377 H   0  0  0  0  0  0  0  0  0  0  0  0
    0.7711   -2.9591    8.2804 H   0  0  0  0  0  0  0  0  0  0  0  0
  1  2  4  0  0  0  0
  2  3  4  0  0  0  0
  3  4  4  0  0  0  0
  4  5  4  0  0  0  0
  1  6  4  0  0  0  0
  5  6  4  0  0  0  0
  6  7  1  0  0  0  0
  5  8  1  0  0  0  0
  3  9  1  0  0  0  0
  2 10  1  0  0  0  0
 10 11  4  0  0  0  0
 11 12  4  0  0  0  0
 12 13  4  0  0  0  0
 13 14  4  0  0  0  0
 10 15  4  0  0  0  0
 14 15  4  0  0  0  0
 15 16  1  0  0  0  0
 13 17  1  0  0  0  0
 12 18  1  0  0  0  0
  1 19  1  0  0  0  0
 11 19  1  0  0  0  0
 19 20  1  0  0  0  0
 19 21  1  0  0  0  0
 21 22  1  0  0  0  0
 22 23  1  0  0  0  0
 23 24  1  0  0  0  0
 24 25  1  0  0  0  0
 24 26  1  0  0  0  0
 24 27  1  0  0  0  0
 23 28  1  0  0  0  0
 28 29  1  0  0  0  0
 28 30  1  0  0  0  0
 28 31  1  0  0  0  0
 23 32  1  0  0  0  0
 21 33  1  0  0  0  0
 32 33  1  0  0  0  0
 32 34  1  0  0  0  0
 34 35  1  0  0  0  0
 34 36  1  0  0  0  0
 34 37  1  0  0  0  0
 32 38  1  0  0  0  0
 38 39  1  0  0  0  0
 38 40  1  0  0  0  0
 38 41  1  0  0  0  0
 19 42  1  0  0  0  0
 42 43  1  0  0  0  0
 43 44  1  0  0  0  0
 44 45  1  0  0  0  0
 45 46  1  0  0  0  0
 45 47  1  0  0  0  0
 45 48  1  0  0  0  0
 44 49  1  0  0  0  0
 49 50  1  0  0  0  0
 49 51  1  0  0  0  0
 49 52  1  0  0  0  0
 44 53  1  0  0  0  0
 42 54  1  0  0  0  0
 53 54  1  0  0  0  0
 53 55  1  0  0  0  0
 55 56  1  0  0  0  0
 55 57  1  0  0  0  0
 55 58  1  0  0  0  0
 53 59  1  0  0  0  0
 59 60  1  0  0  0  0
 59 61  1  0  0  0  0
 59 62  1  0  0  0  0
 19 63  1  0  0  0  0
 63 64  1  0  0  0  0
 64 65  1  0  0  0  0
 65 66  1  0  0  0  0
 66 67  1  0  0  0  0
 66 68  1  0  0  0  0
 66 69  1  0  0  0  0
 65 70  1  0  0  0  0
 70 71  1  0  0  0  0
 70 72  1  0  0  0  0
 70 73  1  0  0  0  0
 65 74  1  0  0  0  0
 63 75  1  0  0  0  0
 74 75  1  0  0  0  0
 74 76  1  0  0  0  0
 76 77  1  0  0  0  0
 76 78  1  0  0  0  0
 76 79  1  0  0  0  0
 74 80  1  0  0  0  0
 80 81  1  0  0  0  0
 80 82  1  0  0  0  0
 80 83  1  0  0  0  0
  4 84  1  0  0  0  0
 14 85  1  0  0  0  0
 19 86  1  0  0  0  0
 20 86  1  0  0  0  0
 86 87  4  0  0  0  0
 86 88  4  0  0  0  0
 87 89  4  0  0  0  0
 87 90  1  0  0  0  0
 88 91  4  0  0  0  0
 88 92  1  0  0  0  0
 89 93  4  0  0  0  0
 91 93  4  0  0  0  0
 89 94  1  0  0  0  0
 91 95  1  0  0  0  0
 93 96  1  0  0  0  0
 95 97  2  0  0  0  0
 95 98  1  0  0  0  0
 96 99  1  0  0  0  0
 98100  1  0  0  0  0
 98101  1  0  0  0  0
 98102  1  0  0  0  0
 99103  1  0  0  0  0
 99104  1  0  0  0  0
 99105  1  0  0  0  0
M  END
