    9
Created with kallisto
C      0.2271    0.9973   -0.0091
S      1.8496    0.4480    0.0010
C     -0.6730   -0.0466   -0.0092
C      1.3534   -1.1903    0.0035
C     -0.0193   -1.3152   -0.0048
C     -2.0922    0.1455   -0.0126
H      2.0917   -1.9811    0.0106
H     -0.5268   -2.2731   -0.0056
N     -3.2424    0.2981   -0.0136
