
  xtb     01142214203D
 xtb: 6.4.1 (1a32961)
110119  0     0  0            999 V2000
   -0.8803   -2.0309   -0.4139 N   0  0  0  0  0  0  0  0  0  0  0  0
   -2.1428   -1.5833   -0.5549 C   0  0  0  0  0  0  0  0  0  0  0  0
   -2.9752   -2.0825   -1.5648 C   0  0  0  0  0  0  0  0  0  0  0  0
   -2.5056   -3.0500   -2.4251 C   0  0  0  0  0  0  0  0  0  0  0  0
   -1.2014   -3.5113   -2.2603 C   0  0  0  0  0  0  0  0  0  0  0  0
   -0.4393   -2.9686   -1.2476 C   0  0  0  0  0  0  0  0  0  0  0  0
    0.5785   -3.2932   -1.0834 H   0  0  0  0  0  0  0  0  0  0  0  0
   -0.7935   -4.2703   -2.9081 H   0  0  0  0  0  0  0  0  0  0  0  0
   -3.9781   -1.7064   -1.6849 H   0  0  0  0  0  0  0  0  0  0  0  0
   -2.5689   -0.5528    0.3826 C   0  0  0  0  0  0  0  0  0  0  0  0
   -1.6203   -0.0557    1.2048 N   0  0  0  0  0  0  0  0  0  0  0  0
   -1.9645    0.8862    2.0796 C   0  0  0  0  0  0  0  0  0  0  0  0
   -3.2446    1.3870    2.1971 C   0  0  0  0  0  0  0  0  0  0  0  0
   -4.2356    0.8829    1.3578 C   0  0  0  0  0  0  0  0  0  0  0  0
   -3.8897   -0.0902    0.4460 C   0  0  0  0  0  0  0  0  0  0  0  0
   -4.6440   -0.5000   -0.2054 H   0  0  0  0  0  0  0  0  0  0  0  0
   -3.4677    2.1449    2.9306 H   0  0  0  0  0  0  0  0  0  0  0  0
   -1.1615    1.2489    2.7022 H   0  0  0  0  0  0  0  0  0  0  0  0
    0.4215   -0.8165    0.9133 Ir  0  0  0  0  0  0  0  0  0  0  0  0
    0.8726   -2.2303    1.5405 H   0  0  0  0  0  0  0  0  0  0  0  0
    0.3421    0.6360   -0.5903 B   0  0  0  0  0  0  0  0  0  0  0  0
   -0.3723    0.3710   -1.7488 O   0  0  0  0  0  0  0  0  0  0  0  0
   -0.5432    1.5716   -2.5062 C   0  0  0  0  0  0  0  0  0  0  0  0
   -0.4061    1.2687   -3.9963 C   0  0  0  0  0  0  0  0  0  0  0  0
    0.5118    0.7260   -4.1965 H   0  0  0  0  0  0  0  0  0  0  0  0
   -0.4166    2.1932   -4.5680 H   0  0  0  0  0  0  0  0  0  0  0  0
   -1.2425    0.6496   -4.3124 H   0  0  0  0  0  0  0  0  0  0  0  0
   -1.9647    2.0804   -2.2227 C   0  0  0  0  0  0  0  0  0  0  0  0
   -2.1868    2.9731   -2.7999 H   0  0  0  0  0  0  0  0  0  0  0  0
   -2.6735    1.2990   -2.4906 H   0  0  0  0  0  0  0  0  0  0  0  0
   -2.0806    2.2898   -1.1610 H   0  0  0  0  0  0  0  0  0  0  0  0
    0.5618    2.5057   -1.9147 C   0  0  0  0  0  0  0  0  0  0  0  0
    0.7791    1.9426   -0.6149 O   0  0  0  0  0  0  0  0  0  0  0  0
    1.8909    2.3938   -2.6720 C   0  0  0  0  0  0  0  0  0  0  0  0
    2.1990    1.3512   -2.6991 H   0  0  0  0  0  0  0  0  0  0  0  0
    1.8099    2.7947   -3.6783 H   0  0  0  0  0  0  0  0  0  0  0  0
    2.6501    2.9504   -2.1274 H   0  0  0  0  0  0  0  0  0  0  0  0
    0.1657    3.9757   -1.7897 C   0  0  0  0  0  0  0  0  0  0  0  0
   -0.6638    4.1017   -1.1007 H   0  0  0  0  0  0  0  0  0  0  0  0
    1.0124    4.5419   -1.4087 H   0  0  0  0  0  0  0  0  0  0  0  0
   -0.1091    4.3711   -2.7644 H   0  0  0  0  0  0  0  0  0  0  0  0
    1.5243    0.6897    1.8431 B   0  0  0  0  0  0  0  0  0  0  0  0
    2.8863    0.8836    1.8334 O   0  0  0  0  0  0  0  0  0  0  0  0
    3.2084    2.1667    2.3876 C   0  0  0  0  0  0  0  0  0  0  0  0
    4.4690    2.0595    3.2446 C   0  0  0  0  0  0  0  0  0  0  0  0
    4.3733    1.2710    3.9835 H   0  0  0  0  0  0  0  0  0  0  0  0
    5.3152    1.8221    2.6050 H   0  0  0  0  0  0  0  0  0  0  0  0
    4.6619    3.0056    3.7432 H   0  0  0  0  0  0  0  0  0  0  0  0
    3.4736    3.1012    1.2010 C   0  0  0  0  0  0  0  0  0  0  0  0
    3.7080    4.1093    1.5300 H   0  0  0  0  0  0  0  0  0  0  0  0
    4.3143    2.7099    0.6323 H   0  0  0  0  0  0  0  0  0  0  0  0
    2.6019    3.1014    0.5518 H   0  0  0  0  0  0  0  0  0  0  0  0
    1.9057    2.5392    3.1752 C   0  0  0  0  0  0  0  0  0  0  0  0
    0.9205    1.6883    2.5770 O   0  0  0  0  0  0  0  0  0  0  0  0
    1.4659    3.9960    3.0374 C   0  0  0  0  0  0  0  0  0  0  0  0
    1.2276    4.2267    2.0045 H   0  0  0  0  0  0  0  0  0  0  0  0
    0.5731    4.1562    3.6369 H   0  0  0  0  0  0  0  0  0  0  0  0
    2.2494    4.6607    3.3913 H   0  0  0  0  0  0  0  0  0  0  0  0
    1.9755    2.1713    4.6632 C   0  0  0  0  0  0  0  0  0  0  0  0
    2.2336    1.1218    4.7727 H   0  0  0  0  0  0  0  0  0  0  0  0
    2.6973    2.7909    5.1866 H   0  0  0  0  0  0  0  0  0  0  0  0
    0.9934    2.3211    5.1055 H   0  0  0  0  0  0  0  0  0  0  0  0
    2.2782   -1.3309    0.1741 B   0  0  0  0  0  0  0  0  0  0  0  0
    3.1917   -2.1833    0.7575 O   0  0  0  0  0  0  0  0  0  0  0  0
    4.4452   -2.1244    0.0666 C   0  0  0  0  0  0  0  0  0  0  0  0
    5.3761   -1.2592    0.9233 C   0  0  0  0  0  0  0  0  0  0  0  0
    4.8958   -0.3024    1.1065 H   0  0  0  0  0  0  0  0  0  0  0  0
    5.5171   -1.7515    1.8822 H   0  0  0  0  0  0  0  0  0  0  0  0
    6.3432   -1.1221    0.4496 H   0  0  0  0  0  0  0  0  0  0  0  0
    5.0297   -3.5326   -0.0484 C   0  0  0  0  0  0  0  0  0  0  0  0
    5.2361   -3.9074    0.9507 H   0  0  0  0  0  0  0  0  0  0  0  0
    5.9564   -3.5076   -0.6149 H   0  0  0  0  0  0  0  0  0  0  0  0
    4.3317   -4.2136   -0.5238 H   0  0  0  0  0  0  0  0  0  0  0  0
    4.0619   -1.4510   -1.2996 C   0  0  0  0  0  0  0  0  0  0  0  0
    2.7789   -0.8713   -1.0245 O   0  0  0  0  0  0  0  0  0  0  0  0
    5.0143   -0.3476   -1.7595 C   0  0  0  0  0  0  0  0  0  0  0  0
    6.0201   -0.7397   -1.8824 H   0  0  0  0  0  0  0  0  0  0  0  0
    4.6701    0.0424   -2.7142 H   0  0  0  0  0  0  0  0  0  0  0  0
    5.0199    0.4675   -1.0441 H   0  0  0  0  0  0  0  0  0  0  0  0
    3.8738   -2.4570   -2.4436 C   0  0  0  0  0  0  0  0  0  0  0  0
    3.1658   -3.2287   -2.1546 H   0  0  0  0  0  0  0  0  0  0  0  0
    3.4649   -1.9324   -3.3039 H   0  0  0  0  0  0  0  0  0  0  0  0
    4.8194   -2.9116   -2.7230 H   0  0  0  0  0  0  0  0  0  0  0  0
   -3.1349   -3.4392   -3.2112 H   0  0  0  0  0  0  0  0  0  0  0  0
   -5.2519    1.2420    1.4208 H   0  0  0  0  0  0  0  0  0  0  0  0
    0.2359   -1.6814    2.9603 C   0  0  0  0  0  0  0  0  0  0  0  0
   -1.0004   -2.1664    3.3417 C   0  0  0  0  0  0  0  0  0  0  0  0
    1.2383   -1.4959    3.9322 C   0  0  0  0  0  0  0  0  0  0  0  0
   -1.2615   -2.3954    4.6978 C   0  0  0  0  0  0  0  0  0  0  0  0
   -1.7702   -2.3957    2.6170 H   0  0  0  0  0  0  0  0  0  0  0  0
    1.0119   -1.7085    5.2747 C   0  0  0  0  0  0  0  0  0  0  0  0
    2.2194   -1.1961    3.5972 H   0  0  0  0  0  0  0  0  0  0  0  0
   -0.2461   -2.1621    5.6558 C   0  0  0  0  0  0  0  0  0  0  0  0
   -2.3795   -2.8976    5.4126 C   0  0  0  0  0  0  0  0  0  0  0  0
    1.7942   -1.5600    6.0054 H   0  0  0  0  0  0  0  0  0  0  0  0
   -0.7330   -2.5241    6.8766 N   0  0  0  0  0  0  0  0  0  0  0  0
   -2.0269   -2.9703    6.7407 C   0  0  0  0  0  0  0  0  0  0  0  0
   -3.3151   -3.2009    4.9850 H   0  0  0  0  0  0  0  0  0  0  0  0
   -0.2450   -2.4243    7.7498 H   0  0  0  0  0  0  0  0  0  0  0  0
   -2.7931   -3.4731    7.8674 C   0  0  0  0  0  0  0  0  0  0  0  0
   -2.1605   -3.9812    9.0047 C   0  0  0  0  0  0  0  0  0  0  0  0
   -4.1893   -3.4847    7.8252 C   0  0  0  0  0  0  0  0  0  0  0  0
   -2.8994   -4.4791   10.0612 C   0  0  0  0  0  0  0  0  0  0  0  0
   -1.0820   -4.0143    9.0545 H   0  0  0  0  0  0  0  0  0  0  0  0
   -4.9240   -3.9844    8.8827 C   0  0  0  0  0  0  0  0  0  0  0  0
   -4.6937   -3.0885    6.9572 H   0  0  0  0  0  0  0  0  0  0  0  0
   -4.2836   -4.4823   10.0068 C   0  0  0  0  0  0  0  0  0  0  0  0
   -2.3924   -4.8725   10.9306 H   0  0  0  0  0  0  0  0  0  0  0  0
   -6.0034   -3.9849    8.8329 H   0  0  0  0  0  0  0  0  0  0  0  0
   -4.8594   -4.8725   10.8329 H   0  0  0  0  0  0  0  0  0  0  0  0
  1  2  4  0  0  0  0
  2  3  4  0  0  0  0
  3  4  4  0  0  0  0
  4  5  4  0  0  0  0
  1  6  4  0  0  0  0
  5  6  4  0  0  0  0
  6  7  1  0  0  0  0
  5  8  1  0  0  0  0
  3  9  1  0  0  0  0
  2 10  1  0  0  0  0
 10 11  4  0  0  0  0
 11 12  4  0  0  0  0
 12 13  4  0  0  0  0
 13 14  4  0  0  0  0
 10 15  4  0  0  0  0
 14 15  4  0  0  0  0
 15 16  1  0  0  0  0
 13 17  1  0  0  0  0
 12 18  1  0  0  0  0
  1 19  1  0  0  0  0
 11 19  1  0  0  0  0
 19 20  1  0  0  0  0
 19 21  1  0  0  0  0
 21 22  1  0  0  0  0
 22 23  1  0  0  0  0
 23 24  1  0  0  0  0
 24 25  1  0  0  0  0
 24 26  1  0  0  0  0
 24 27  1  0  0  0  0
 23 28  1  0  0  0  0
 28 29  1  0  0  0  0
 28 30  1  0  0  0  0
 28 31  1  0  0  0  0
 23 32  1  0  0  0  0
 21 33  1  0  0  0  0
 32 33  1  0  0  0  0
 32 34  1  0  0  0  0
 34 35  1  0  0  0  0
 34 36  1  0  0  0  0
 34 37  1  0  0  0  0
 32 38  1  0  0  0  0
 38 39  1  0  0  0  0
 38 40  1  0  0  0  0
 38 41  1  0  0  0  0
 19 42  1  0  0  0  0
 42 43  1  0  0  0  0
 43 44  1  0  0  0  0
 44 45  1  0  0  0  0
 45 46  1  0  0  0  0
 45 47  1  0  0  0  0
 45 48  1  0  0  0  0
 44 49  1  0  0  0  0
 49 50  1  0  0  0  0
 49 51  1  0  0  0  0
 49 52  1  0  0  0  0
 44 53  1  0  0  0  0
 42 54  1  0  0  0  0
 53 54  1  0  0  0  0
 53 55  1  0  0  0  0
 55 56  1  0  0  0  0
 55 57  1  0  0  0  0
 55 58  1  0  0  0  0
 53 59  1  0  0  0  0
 59 60  1  0  0  0  0
 59 61  1  0  0  0  0
 59 62  1  0  0  0  0
 19 63  1  0  0  0  0
 63 64  1  0  0  0  0
 64 65  1  0  0  0  0
 65 66  1  0  0  0  0
 66 67  1  0  0  0  0
 66 68  1  0  0  0  0
 66 69  1  0  0  0  0
 65 70  1  0  0  0  0
 70 71  1  0  0  0  0
 70 72  1  0  0  0  0
 70 73  1  0  0  0  0
 65 74  1  0  0  0  0
 63 75  1  0  0  0  0
 74 75  1  0  0  0  0
 74 76  1  0  0  0  0
 76 77  1  0  0  0  0
 76 78  1  0  0  0  0
 76 79  1  0  0  0  0
 74 80  1  0  0  0  0
 80 81  1  0  0  0  0
 80 82  1  0  0  0  0
 80 83  1  0  0  0  0
  4 84  1  0  0  0  0
 14 85  1  0  0  0  0
 19 86  1  0  0  0  0
 20 86  1  0  0  0  0
 86 87  4  0  0  0  0
 86 88  4  0  0  0  0
 87 89  4  0  0  0  0
 87 90  1  0  0  0  0
 88 91  2  0  0  0  0
 88 92  1  0  0  0  0
 89 93  4  0  0  0  0
 91 93  4  0  0  0  0
 89 94  4  0  0  0  0
 91 95  1  0  0  0  0
 93 96  1  0  0  0  0
 94 97  2  0  0  0  0
 96 97  1  0  0  0  0
 94 98  1  0  0  0  0
 96 99  1  0  0  0  0
 97100  1  0  0  0  0
100101  4  0  0  0  0
100102  4  0  0  0  0
101103  4  0  0  0  0
101104  1  0  0  0  0
102105  4  0  0  0  0
102106  1  0  0  0  0
103107  4  0  0  0  0
105107  4  0  0  0  0
103108  1  0  0  0  0
105109  1  0  0  0  0
107110  1  0  0  0  0
M  END
