
  xtb     01142213163D
 xtb: 6.4.1 (1a32961)
 95102  0     0  0            999 V2000
   -0.9764   -2.0472   -0.3272 N   0  0  0  0  0  0  0  0  0  0  0  0
   -2.2357   -1.5896   -0.4408 C   0  0  0  0  0  0  0  0  0  0  0  0
   -3.1803   -2.2693   -1.2205 C   0  0  0  0  0  0  0  0  0  0  0  0
   -2.8098   -3.4051   -1.9082 C   0  0  0  0  0  0  0  0  0  0  0  0
   -1.4955   -3.8512   -1.8011 C   0  0  0  0  0  0  0  0  0  0  0  0
   -0.6274   -3.1418   -0.9959 C   0  0  0  0  0  0  0  0  0  0  0  0
    0.3983   -3.4579   -0.8676 H   0  0  0  0  0  0  0  0  0  0  0  0
   -1.1606   -4.7319   -2.3242 H   0  0  0  0  0  0  0  0  0  0  0  0
   -4.1972   -1.9186   -1.2805 H   0  0  0  0  0  0  0  0  0  0  0  0
   -2.5477   -0.3635    0.2868 C   0  0  0  0  0  0  0  0  0  0  0  0
   -1.5973    0.1008    1.1264 N   0  0  0  0  0  0  0  0  0  0  0  0
   -1.8436    1.2150    1.8142 C   0  0  0  0  0  0  0  0  0  0  0  0
   -3.0191    1.9304    1.7090 C   0  0  0  0  0  0  0  0  0  0  0  0
   -3.9969    1.4785    0.8272 C   0  0  0  0  0  0  0  0  0  0  0  0
   -3.7533    0.3251    0.1118 C   0  0  0  0  0  0  0  0  0  0  0  0
   -4.4903   -0.0316   -0.5881 H   0  0  0  0  0  0  0  0  0  0  0  0
   -3.1673    2.8209    2.2978 H   0  0  0  0  0  0  0  0  0  0  0  0
   -1.0474    1.5381    2.4677 H   0  0  0  0  0  0  0  0  0  0  0  0
    0.4215   -0.8165    0.9133 Ir  0  0  0  0  0  0  0  0  0  0  0  0
    0.8726   -2.2303    1.5405 H   0  0  0  0  0  0  0  0  0  0  0  0
    0.3978    0.5991   -0.6114 B   0  0  0  0  0  0  0  0  0  0  0  0
   -0.1429    0.2463   -1.8301 O   0  0  0  0  0  0  0  0  0  0  0  0
   -0.2219    1.3946   -2.6846 C   0  0  0  0  0  0  0  0  0  0  0  0
    0.1921    1.0012   -4.1003 C   0  0  0  0  0  0  0  0  0  0  0  0
    1.1522    0.4962   -4.0905 H   0  0  0  0  0  0  0  0  0  0  0  0
    0.2461    1.8819   -4.7347 H   0  0  0  0  0  0  0  0  0  0  0  0
   -0.5469    0.3170   -4.5101 H   0  0  0  0  0  0  0  0  0  0  0  0
   -1.6884    1.8486   -2.6931 C   0  0  0  0  0  0  0  0  0  0  0  0
   -1.8324    2.6941   -3.3590 H   0  0  0  0  0  0  0  0  0  0  0  0
   -2.3071    1.0204   -3.0330 H   0  0  0  0  0  0  0  0  0  0  0  0
   -2.0047    2.1156   -1.6868 H   0  0  0  0  0  0  0  0  0  0  0  0
    0.7287    2.4152   -1.9737 C   0  0  0  0  0  0  0  0  0  0  0  0
    0.7652    1.9219   -0.6248 O   0  0  0  0  0  0  0  0  0  0  0  0
    2.1652    2.3468   -2.5051 C   0  0  0  0  0  0  0  0  0  0  0  0
    2.5335    1.3293   -2.3991 H   0  0  0  0  0  0  0  0  0  0  0  0
    2.2208    2.6711   -3.5400 H   0  0  0  0  0  0  0  0  0  0  0  0
    2.7939    2.9932   -1.8976 H   0  0  0  0  0  0  0  0  0  0  0  0
    0.2469    3.8641   -1.9838 C   0  0  0  0  0  0  0  0  0  0  0  0
   -0.6971    3.9709   -1.4588 H   0  0  0  0  0  0  0  0  0  0  0  0
    0.9844    4.4864   -1.4830 H   0  0  0  0  0  0  0  0  0  0  0  0
    0.1339    4.2103   -3.0078 H   0  0  0  0  0  0  0  0  0  0  0  0
    1.6159    0.6078    1.8724 B   0  0  0  0  0  0  0  0  0  0  0  0
    2.9647    0.8059    1.7731 O   0  0  0  0  0  0  0  0  0  0  0  0
    3.3271    2.0505    2.3913 C   0  0  0  0  0  0  0  0  0  0  0  0
    4.6485    1.8914    3.1403 C   0  0  0  0  0  0  0  0  0  0  0  0
    4.6100    1.0503    3.8243 H   0  0  0  0  0  0  0  0  0  0  0  0
    5.4444    1.7097    2.4225 H   0  0  0  0  0  0  0  0  0  0  0  0
    4.8764    2.7991    3.6923 H   0  0  0  0  0  0  0  0  0  0  0  0
    3.4994    3.0634    1.2532 C   0  0  0  0  0  0  0  0  0  0  0  0
    3.7629    4.0463    1.6317 H   0  0  0  0  0  0  0  0  0  0  0  0
    4.2912    2.7113    0.5962 H   0  0  0  0  0  0  0  0  0  0  0  0
    2.5800    3.1076    0.6752 H   0  0  0  0  0  0  0  0  0  0  0  0
    2.0869    2.3595    3.2976 C   0  0  0  0  0  0  0  0  0  0  0  0
    1.0582    1.5424    2.7163 O   0  0  0  0  0  0  0  0  0  0  0  0
    1.6324    3.8180    3.2918 C   0  0  0  0  0  0  0  0  0  0  0  0
    1.3150    4.1181    2.2986 H   0  0  0  0  0  0  0  0  0  0  0  0
    0.7898    3.9303    3.9697 H   0  0  0  0  0  0  0  0  0  0  0  0
    2.4401    4.4612    3.6296 H   0  0  0  0  0  0  0  0  0  0  0  0
    2.2716    1.8913    4.7455 C   0  0  0  0  0  0  0  0  0  0  0  0
    2.5625    0.8442    4.7659 H   0  0  0  0  0  0  0  0  0  0  0  0
    3.0169    2.4892    5.2601 H   0  0  0  0  0  0  0  0  0  0  0  0
    1.3232    1.9854    5.2706 H   0  0  0  0  0  0  0  0  0  0  0  0
    2.2782   -1.3309    0.1741 B   0  0  0  0  0  0  0  0  0  0  0  0
    3.0572   -2.3592    0.6499 O   0  0  0  0  0  0  0  0  0  0  0  0
    4.3644   -2.3037    0.0603 C   0  0  0  0  0  0  0  0  0  0  0  0
    5.2881   -1.6808    1.1119 C   0  0  0  0  0  0  0  0  0  0  0  0
    4.8828   -0.7188    1.4122 H   0  0  0  0  0  0  0  0  0  0  0  0
    5.2985   -2.3259    1.9868 H   0  0  0  0  0  0  0  0  0  0  0  0
    6.3017   -1.5727    0.7389 H   0  0  0  0  0  0  0  0  0  0  0  0
    4.8381   -3.7219   -0.2561 C   0  0  0  0  0  0  0  0  0  0  0  0
    4.9302   -4.2738    0.6756 H   0  0  0  0  0  0  0  0  0  0  0  0
    5.8076   -3.6915   -0.7448 H   0  0  0  0  0  0  0  0  0  0  0  0
    4.1291   -4.2454   -0.8888 H   0  0  0  0  0  0  0  0  0  0  0  0
    4.1424   -1.3799   -1.1902 C   0  0  0  0  0  0  0  0  0  0  0  0
    2.8955   -0.7293   -0.8928 O   0  0  0  0  0  0  0  0  0  0  0  0
    5.2179   -0.3152   -1.3964 C   0  0  0  0  0  0  0  0  0  0  0  0
    6.1923   -0.7797   -1.5176 H   0  0  0  0  0  0  0  0  0  0  0  0
    4.9865    0.2561   -2.2918 H   0  0  0  0  0  0  0  0  0  0  0  0
    5.2350    0.3665   -0.5533 H   0  0  0  0  0  0  0  0  0  0  0  0
    3.9465   -2.1593   -2.4972 C   0  0  0  0  0  0  0  0  0  0  0  0
    3.1440   -2.8835   -2.3879 H   0  0  0  0  0  0  0  0  0  0  0  0
    3.6621   -1.4598   -3.2795 H   0  0  0  0  0  0  0  0  0  0  0  0
    4.8619   -2.6638   -2.7905 H   0  0  0  0  0  0  0  0  0  0  0  0
   -3.5262   -3.9375   -2.5147 H   0  0  0  0  0  0  0  0  0  0  0  0
   -4.9228    2.0186    0.7016 H   0  0  0  0  0  0  0  0  0  0  0  0
    0.2359   -1.6814    2.9603 C   0  0  0  0  0  0  0  0  0  0  0  0
   -1.0538   -2.0752    3.3629 C   0  0  0  0  0  0  0  0  0  0  0  0
    1.1762   -1.5043    3.8829 N   0  0  0  0  0  0  0  0  0  0  0  0
   -1.3083   -2.1452    4.7182 C   0  0  0  0  0  0  0  0  0  0  0  0
   -1.8271   -2.3031    2.6472 H   0  0  0  0  0  0  0  0  0  0  0  0
    0.8349   -1.6294    5.1571 C   0  0  0  0  0  0  0  0  0  0  0  0
   -0.3737   -1.9161    5.6353 N   0  0  0  0  0  0  0  0  0  0  0  0
   -2.2865   -2.3971    5.1092 H   0  0  0  0  0  0  0  0  0  0  0  0
    1.8720   -1.4473    6.1218 C   0  0  0  0  0  0  0  0  0  0  0  0
    2.7031   -1.3136    6.8992 N   0  0  0  0  0  0  0  0  0  0  0  0
  1  2  4  0  0  0  0
  2  3  4  0  0  0  0
  3  4  4  0  0  0  0
  4  5  4  0  0  0  0
  1  6  4  0  0  0  0
  5  6  4  0  0  0  0
  6  7  1  0  0  0  0
  5  8  1  0  0  0  0
  3  9  1  0  0  0  0
  2 10  1  0  0  0  0
 10 11  4  0  0  0  0
 11 12  4  0  0  0  0
 12 13  4  0  0  0  0
 13 14  4  0  0  0  0
 10 15  4  0  0  0  0
 14 15  4  0  0  0  0
 15 16  1  0  0  0  0
 13 17  1  0  0  0  0
 12 18  1  0  0  0  0
  1 19  1  0  0  0  0
 11 19  1  0  0  0  0
 19 20  1  0  0  0  0
 19 21  1  0  0  0  0
 21 22  1  0  0  0  0
 22 23  1  0  0  0  0
 23 24  1  0  0  0  0
 24 25  1  0  0  0  0
 24 26  1  0  0  0  0
 24 27  1  0  0  0  0
 23 28  1  0  0  0  0
 28 29  1  0  0  0  0
 28 30  1  0  0  0  0
 28 31  1  0  0  0  0
 23 32  1  0  0  0  0
 21 33  1  0  0  0  0
 32 33  1  0  0  0  0
 32 34  1  0  0  0  0
 34 35  1  0  0  0  0
 34 36  1  0  0  0  0
 34 37  1  0  0  0  0
 32 38  1  0  0  0  0
 38 39  1  0  0  0  0
 38 40  1  0  0  0  0
 38 41  1  0  0  0  0
 19 42  1  0  0  0  0
 42 43  1  0  0  0  0
 43 44  1  0  0  0  0
 44 45  1  0  0  0  0
 45 46  1  0  0  0  0
 45 47  1  0  0  0  0
 45 48  1  0  0  0  0
 44 49  1  0  0  0  0
 49 50  1  0  0  0  0
 49 51  1  0  0  0  0
 49 52  1  0  0  0  0
 44 53  1  0  0  0  0
 42 54  1  0  0  0  0
 53 54  1  0  0  0  0
 53 55  1  0  0  0  0
 55 56  1  0  0  0  0
 55 57  1  0  0  0  0
 55 58  1  0  0  0  0
 53 59  1  0  0  0  0
 59 60  1  0  0  0  0
 59 61  1  0  0  0  0
 59 62  1  0  0  0  0
 19 63  1  0  0  0  0
 63 64  1  0  0  0  0
 64 65  1  0  0  0  0
 65 66  1  0  0  0  0
 66 67  1  0  0  0  0
 66 68  1  0  0  0  0
 66 69  1  0  0  0  0
 65 70  1  0  0  0  0
 70 71  1  0  0  0  0
 70 72  1  0  0  0  0
 70 73  1  0  0  0  0
 65 74  1  0  0  0  0
 63 75  1  0  0  0  0
 74 75  1  0  0  0  0
 74 76  1  0  0  0  0
 76 77  1  0  0  0  0
 76 78  1  0  0  0  0
 76 79  1  0  0  0  0
 74 80  1  0  0  0  0
 80 81  1  0  0  0  0
 80 82  1  0  0  0  0
 80 83  1  0  0  0  0
  4 84  1  0  0  0  0
 14 85  1  0  0  0  0
 19 86  1  0  0  0  0
 20 86  1  0  0  0  0
 86 87  4  0  0  0  0
 86 88  4  0  0  0  0
 87 89  4  0  0  0  0
 87 90  1  0  0  0  0
 88 91  4  0  0  0  0
 89 92  4  0  0  0  0
 91 92  4  0  0  0  0
 89 93  1  0  0  0  0
 91 94  1  0  0  0  0
 94 95  3  0  0  0  0
M  END
