
  xtb     10082107263D
 xtb: 6.4.0 (f63f532)
 94101  0     0  0            999 V2000
   -0.8886   -2.0403   -0.3531 N   0  0  0  0  0  0  0  0  0  0  0  0
   -2.1780   -1.6655   -0.4139 C   0  0  0  0  0  0  0  0  0  0  0  0
   -3.0905   -2.3615   -1.2170 C   0  0  0  0  0  0  0  0  0  0  0  0
   -2.6659   -3.4372   -1.9665 C   0  0  0  0  0  0  0  0  0  0  0  0
   -1.3254   -3.8060   -1.9006 C   0  0  0  0  0  0  0  0  0  0  0  0
   -0.4876   -3.0781   -1.0813 C   0  0  0  0  0  0  0  0  0  0  0  0
    0.5597   -3.3308   -0.9940 H   0  0  0  0  0  0  0  0  0  0  0  0
   -0.9473   -4.6404   -2.4686 H   0  0  0  0  0  0  0  0  0  0  0  0
   -4.1260   -2.0676   -1.2530 H   0  0  0  0  0  0  0  0  0  0  0  0
   -2.5569   -0.5075    0.3892 C   0  0  0  0  0  0  0  0  0  0  0  0
   -1.5952    0.0344    1.1615 N   0  0  0  0  0  0  0  0  0  0  0  0
   -1.8978    1.0903    1.9105 C   0  0  0  0  0  0  0  0  0  0  0  0
   -3.1507    1.6697    1.9428 C   0  0  0  0  0  0  0  0  0  0  0  0
   -4.1506    1.1319    1.1394 C   0  0  0  0  0  0  0  0  0  0  0  0
   -3.8448    0.0398    0.3558 C   0  0  0  0  0  0  0  0  0  0  0  0
   -4.6042   -0.3832   -0.2801 H   0  0  0  0  0  0  0  0  0  0  0  0
   -3.3412    2.5188    2.5792 H   0  0  0  0  0  0  0  0  0  0  0  0
   -1.0851    1.4877    2.4991 H   0  0  0  0  0  0  0  0  0  0  0  0
    0.4215   -0.8165    0.9133 Ir  0  0  0  0  0  0  0  0  0  0  0  0
    0.8726   -2.2303    1.5405 H   0  0  0  0  0  0  0  0  0  0  0  0
    0.4172    0.6132   -0.6033 B   0  0  0  0  0  0  0  0  0  0  0  0
   -0.1982    0.3254   -1.8060 O   0  0  0  0  0  0  0  0  0  0  0  0
   -0.2455    1.4978   -2.6271 C   0  0  0  0  0  0  0  0  0  0  0  0
    0.0532    1.1215   -4.0763 C   0  0  0  0  0  0  0  0  0  0  0  0
    0.9718    0.5478   -4.1406 H   0  0  0  0  0  0  0  0  0  0  0  0
    0.1368    2.0172   -4.6864 H   0  0  0  0  0  0  0  0  0  0  0  0
   -0.7584    0.5086   -4.4610 H   0  0  0  0  0  0  0  0  0  0  0  0
   -1.6728    2.0546   -2.5301 C   0  0  0  0  0  0  0  0  0  0  0  0
   -1.7972    2.9285   -3.1625 H   0  0  0  0  0  0  0  0  0  0  0  0
   -2.3697    1.2825   -2.8499 H   0  0  0  0  0  0  0  0  0  0  0  0
   -1.9042    2.3101   -1.4979 H   0  0  0  0  0  0  0  0  0  0  0  0
    0.8162    2.4290   -1.9539 C   0  0  0  0  0  0  0  0  0  0  0  0
    0.8858    1.9071   -0.6189 O   0  0  0  0  0  0  0  0  0  0  0  0
    2.2140    2.2623   -2.5624 C   0  0  0  0  0  0  0  0  0  0  0  0
    2.5028    1.2156   -2.5050 H   0  0  0  0  0  0  0  0  0  0  0  0
    2.2458    2.6144   -3.5894 H   0  0  0  0  0  0  0  0  0  0  0  0
    2.9227    2.8351   -1.9690 H   0  0  0  0  0  0  0  0  0  0  0  0
    0.4473    3.9107   -1.9182 C   0  0  0  0  0  0  0  0  0  0  0  0
   -0.4508    4.0799   -1.3325 H   0  0  0  0  0  0  0  0  0  0  0  0
    1.2605    4.4687   -1.4604 H   0  0  0  0  0  0  0  0  0  0  0  0
    0.2958    4.2798   -2.9293 H   0  0  0  0  0  0  0  0  0  0  0  0
    1.5660    0.6270    1.9069 B   0  0  0  0  0  0  0  0  0  0  0  0
    2.9376    0.7385    1.9449 O   0  0  0  0  0  0  0  0  0  0  0  0
    3.3150    2.0127    2.4870 C   0  0  0  0  0  0  0  0  0  0  0  0
    4.5555    1.8587    3.3657 C   0  0  0  0  0  0  0  0  0  0  0  0
    4.4122    1.0899    4.1178 H   0  0  0  0  0  0  0  0  0  0  0  0
    5.3987    1.5693    2.7439 H   0  0  0  0  0  0  0  0  0  0  0  0
    4.7869    2.8030    3.8510 H   0  0  0  0  0  0  0  0  0  0  0  0
    3.6421    2.9132    1.2900 C   0  0  0  0  0  0  0  0  0  0  0  0
    3.9236    3.9130    1.6067 H   0  0  0  0  0  0  0  0  0  0  0  0
    4.4685    2.4700    0.7389 H   0  0  0  0  0  0  0  0  0  0  0  0
    2.7798    2.9466    0.6290 H   0  0  0  0  0  0  0  0  0  0  0  0
    2.0195    2.4605    3.2452 C   0  0  0  0  0  0  0  0  0  0  0  0
    1.0028    1.6528    2.6362 O   0  0  0  0  0  0  0  0  0  0  0  0
    1.6555    3.9350    3.0815 C   0  0  0  0  0  0  0  0  0  0  0  0
    1.4439    4.1616    2.0421 H   0  0  0  0  0  0  0  0  0  0  0  0
    0.7635    4.1484    3.6655 H   0  0  0  0  0  0  0  0  0  0  0  0
    2.4666    4.5638    3.4384 H   0  0  0  0  0  0  0  0  0  0  0  0
    2.0427    2.1093    4.7387 C   0  0  0  0  0  0  0  0  0  0  0  0
    2.2631    1.0534    4.8703 H   0  0  0  0  0  0  0  0  0  0  0  0
    2.7746    2.7099    5.2699 H   0  0  0  0  0  0  0  0  0  0  0  0
    1.0571    2.3003    5.1572 H   0  0  0  0  0  0  0  0  0  0  0  0
    2.2782   -1.3309    0.1741 B   0  0  0  0  0  0  0  0  0  0  0  0
    3.0959   -2.2946    0.7321 O   0  0  0  0  0  0  0  0  0  0  0  0
    4.3847   -2.2834    0.1047 C   0  0  0  0  0  0  0  0  0  0  0  0
    5.3298   -1.5508    1.0635 C   0  0  0  0  0  0  0  0  0  0  0  0
    4.9126   -0.5737    1.2895 H   0  0  0  0  0  0  0  0  0  0  0  0
    5.3839   -2.1151    1.9913 H   0  0  0  0  0  0  0  0  0  0  0  0
    6.3282   -1.4576    0.6478 H   0  0  0  0  0  0  0  0  0  0  0  0
    4.8705   -3.7204   -0.0855 C   0  0  0  0  0  0  0  0  0  0  0  0
    5.0008   -4.1775    0.8919 H   0  0  0  0  0  0  0  0  0  0  0  0
    5.8230   -3.7272   -0.6077 H   0  0  0  0  0  0  0  0  0  0  0  0
    4.1492   -4.3125   -0.6386 H   0  0  0  0  0  0  0  0  0  0  0  0
    4.1170   -1.4899   -1.2226 C   0  0  0  0  0  0  0  0  0  0  0  0
    2.8757   -0.8191   -0.9525 O   0  0  0  0  0  0  0  0  0  0  0  0
    5.1809   -0.4506   -1.5719 C   0  0  0  0  0  0  0  0  0  0  0  0
    6.1522   -0.9255   -1.6784 H   0  0  0  0  0  0  0  0  0  0  0  0
    4.9180    0.0262   -2.5126 H   0  0  0  0  0  0  0  0  0  0  0  0
    5.2267    0.3152   -0.8055 H   0  0  0  0  0  0  0  0  0  0  0  0
    3.8850   -2.3984   -2.4374 C   0  0  0  0  0  0  0  0  0  0  0  0
    3.1028   -3.1216   -2.2234 H   0  0  0  0  0  0  0  0  0  0  0  0
    3.5531   -1.7845   -3.2712 H   0  0  0  0  0  0  0  0  0  0  0  0
    4.7976   -2.9149   -2.7191 H   0  0  0  0  0  0  0  0  0  0  0  0
   -3.3594   -3.9807   -2.5898 H   0  0  0  0  0  0  0  0  0  0  0  0
   -5.1421    1.5586    1.1266 H   0  0  0  0  0  0  0  0  0  0  0  0
    0.2359   -1.6814    2.9603 C   0  0  0  0  0  0  0  0  0  0  0  0
   -1.0283   -1.9846    3.2129 N   0  0  0  0  0  0  0  0  0  0  0  0
    1.1809   -1.5797    3.9992 C   0  0  0  0  0  0  0  0  0  0  0  0
   -1.4654   -2.1008    4.4432 N   0  0  0  0  0  0  0  0  0  0  0  0
    0.7267   -1.7119    5.2907 C   0  0  0  0  0  0  0  0  0  0  0  0
    2.2194   -1.4089    3.7615 H   0  0  0  0  0  0  0  0  0  0  0  0
   -0.6415   -1.9555    5.4581 C   0  0  0  0  0  0  0  0  0  0  0  0
    1.3841   -1.6441    6.1457 H   0  0  0  0  0  0  0  0  0  0  0  0
   -1.0889   -2.0596    6.4371 H   0  0  0  0  0  0  0  0  0  0  0  0
  1  2  4  0  0  0  0
  2  3  4  0  0  0  0
  3  4  4  0  0  0  0
  4  5  4  0  0  0  0
  1  6  4  0  0  0  0
  5  6  4  0  0  0  0
  6  7  1  0  0  0  0
  5  8  1  0  0  0  0
  3  9  1  0  0  0  0
  2 10  1  0  0  0  0
 10 11  4  0  0  0  0
 11 12  4  0  0  0  0
 12 13  4  0  0  0  0
 13 14  4  0  0  0  0
 10 15  4  0  0  0  0
 14 15  4  0  0  0  0
 15 16  1  0  0  0  0
 13 17  1  0  0  0  0
 12 18  1  0  0  0  0
  1 19  1  0  0  0  0
 11 19  1  0  0  0  0
 19 20  1  0  0  0  0
 19 21  1  0  0  0  0
 21 22  1  0  0  0  0
 22 23  1  0  0  0  0
 23 24  1  0  0  0  0
 24 25  1  0  0  0  0
 24 26  1  0  0  0  0
 24 27  1  0  0  0  0
 23 28  1  0  0  0  0
 28 29  1  0  0  0  0
 28 30  1  0  0  0  0
 28 31  1  0  0  0  0
 23 32  1  0  0  0  0
 21 33  1  0  0  0  0
 32 33  1  0  0  0  0
 32 34  1  0  0  0  0
 34 35  1  0  0  0  0
 34 36  1  0  0  0  0
 34 37  1  0  0  0  0
 32 38  1  0  0  0  0
 38 39  1  0  0  0  0
 38 40  1  0  0  0  0
 38 41  1  0  0  0  0
 19 42  1  0  0  0  0
 42 43  1  0  0  0  0
 43 44  1  0  0  0  0
 44 45  1  0  0  0  0
 45 46  1  0  0  0  0
 45 47  1  0  0  0  0
 45 48  1  0  0  0  0
 44 49  1  0  0  0  0
 49 50  1  0  0  0  0
 49 51  1  0  0  0  0
 49 52  1  0  0  0  0
 44 53  1  0  0  0  0
 42 54  1  0  0  0  0
 53 54  1  0  0  0  0
 53 55  1  0  0  0  0
 55 56  1  0  0  0  0
 55 57  1  0  0  0  0
 55 58  1  0  0  0  0
 53 59  1  0  0  0  0
 59 60  1  0  0  0  0
 59 61  1  0  0  0  0
 59 62  1  0  0  0  0
 19 63  1  0  0  0  0
 63 64  1  0  0  0  0
 64 65  1  0  0  0  0
 65 66  1  0  0  0  0
 66 67  1  0  0  0  0
 66 68  1  0  0  0  0
 66 69  1  0  0  0  0
 65 70  1  0  0  0  0
 70 71  1  0  0  0  0
 70 72  1  0  0  0  0
 70 73  1  0  0  0  0
 65 74  1  0  0  0  0
 63 75  1  0  0  0  0
 74 75  1  0  0  0  0
 74 76  1  0  0  0  0
 76 77  1  0  0  0  0
 76 78  1  0  0  0  0
 76 79  1  0  0  0  0
 74 80  1  0  0  0  0
 80 81  1  0  0  0  0
 80 82  1  0  0  0  0
 80 83  1  0  0  0  0
  4 84  1  0  0  0  0
 14 85  1  0  0  0  0
 19 86  1  0  0  0  0
 20 86  1  0  0  0  0
 86 87  4  0  0  0  0
 86 88  4  0  0  0  0
 87 89  4  0  0  0  0
 88 90  2  0  0  0  0
 88 91  1  0  0  0  0
 89 92  2  0  0  0  0
 90 92  4  0  0  0  0
 90 93  1  0  0  0  0
 92 94  1  0  0  0  0
M  END
