
  xtb     10082107153D
 xtb: 6.4.0 (f63f532)
 98105  0     0  0            999 V2000
   -0.9405   -2.0454   -0.3421 N   0  0  0  0  0  0  0  0  0  0  0  0
   -2.2064   -1.6006   -0.4657 C   0  0  0  0  0  0  0  0  0  0  0  0
   -3.1329   -2.2823   -1.2680 C   0  0  0  0  0  0  0  0  0  0  0  0
   -2.7417   -3.4025   -1.9662 C   0  0  0  0  0  0  0  0  0  0  0  0
   -1.4218   -3.8358   -1.8471 C   0  0  0  0  0  0  0  0  0  0  0  0
   -0.5737   -3.1285   -1.0217 C   0  0  0  0  0  0  0  0  0  0  0  0
    0.4534   -3.4363   -0.8834 H   0  0  0  0  0  0  0  0  0  0  0  0
   -1.0711   -4.7057   -2.3781 H   0  0  0  0  0  0  0  0  0  0  0  0
   -4.1529   -1.9410   -1.3365 H   0  0  0  0  0  0  0  0  0  0  0  0
   -2.5381   -0.3925    0.2733 C   0  0  0  0  0  0  0  0  0  0  0  0
   -1.5914    0.0776    1.1182 N   0  0  0  0  0  0  0  0  0  0  0  0
   -1.8598    1.1777    1.8225 C   0  0  0  0  0  0  0  0  0  0  0  0
   -3.0463    1.8728    1.7291 C   0  0  0  0  0  0  0  0  0  0  0  0
   -4.0201    1.4159    0.8418 C   0  0  0  0  0  0  0  0  0  0  0  0
   -3.7569    0.2788    0.1109 C   0  0  0  0  0  0  0  0  0  0  0  0
   -4.4895   -0.0834   -0.5915 H   0  0  0  0  0  0  0  0  0  0  0  0
   -3.2113    2.7512    2.3320 H   0  0  0  0  0  0  0  0  0  0  0  0
   -1.0688    1.5042    2.4803 H   0  0  0  0  0  0  0  0  0  0  0  0
    0.4215   -0.8165    0.9133 Ir  0  0  0  0  0  0  0  0  0  0  0  0
    0.8726   -2.2303    1.5405 H   0  0  0  0  0  0  0  0  0  0  0  0
    0.3869    0.6303   -0.5895 B   0  0  0  0  0  0  0  0  0  0  0  0
   -0.1920    0.3074   -1.8026 O   0  0  0  0  0  0  0  0  0  0  0  0
   -0.2857    1.4712   -2.6311 C   0  0  0  0  0  0  0  0  0  0  0  0
    0.0731    1.1026   -4.0688 C   0  0  0  0  0  0  0  0  0  0  0  0
    1.0255    0.5843   -4.1038 H   0  0  0  0  0  0  0  0  0  0  0  0
    0.1177    1.9963   -4.6860 H   0  0  0  0  0  0  0  0  0  0  0  0
   -0.6896    0.4376   -4.4669 H   0  0  0  0  0  0  0  0  0  0  0  0
   -1.7452    1.9459   -2.5807 C   0  0  0  0  0  0  0  0  0  0  0  0
   -1.9003    2.8056   -3.2258 H   0  0  0  0  0  0  0  0  0  0  0  0
   -2.3878    1.1328   -2.9131 H   0  0  0  0  0  0  0  0  0  0  0  0
   -2.0227    2.1982   -1.5592 H   0  0  0  0  0  0  0  0  0  0  0  0
    0.7013    2.4662   -1.9351 C   0  0  0  0  0  0  0  0  0  0  0  0
    0.7734    1.9511   -0.5982 O   0  0  0  0  0  0  0  0  0  0  0  0
    2.1191    2.3868   -2.5144 C   0  0  0  0  0  0  0  0  0  0  0  0
    2.4737    1.3615   -2.4410 H   0  0  0  0  0  0  0  0  0  0  0  0
    2.1478    2.7316   -3.5440 H   0  0  0  0  0  0  0  0  0  0  0  0
    2.7775    3.0098   -1.9137 H   0  0  0  0  0  0  0  0  0  0  0  0
    0.2406    3.9223   -1.9081 C   0  0  0  0  0  0  0  0  0  0  0  0
   -0.6825    4.0341   -1.3479 H   0  0  0  0  0  0  0  0  0  0  0  0
    1.0042    4.5272   -1.4252 H   0  0  0  0  0  0  0  0  0  0  0  0
    0.0958    4.2850   -2.9225 H   0  0  0  0  0  0  0  0  0  0  0  0
    1.5962    0.6198    1.8732 B   0  0  0  0  0  0  0  0  0  0  0  0
    2.9583    0.7760    1.8283 O   0  0  0  0  0  0  0  0  0  0  0  0
    3.3295    2.0333    2.4110 C   0  0  0  0  0  0  0  0  0  0  0  0
    4.6171    1.8715    3.2167 C   0  0  0  0  0  0  0  0  0  0  0  0
    4.5307    1.0539    3.9240 H   0  0  0  0  0  0  0  0  0  0  0  0
    5.4361    1.6476    2.5380 H   0  0  0  0  0  0  0  0  0  0  0  0
    4.8445    2.7925    3.7471 H   0  0  0  0  0  0  0  0  0  0  0  0
    3.5687    3.0002    1.2451 C   0  0  0  0  0  0  0  0  0  0  0  0
    3.8481    3.9892    1.5963 H   0  0  0  0  0  0  0  0  0  0  0  0
    4.3694    2.6036    0.6252 H   0  0  0  0  0  0  0  0  0  0  0  0
    2.6687    3.0482    0.6375 H   0  0  0  0  0  0  0  0  0  0  0  0
    2.0646    2.4063    3.2555 C   0  0  0  0  0  0  0  0  0  0  0  0
    1.0362    1.6106    2.6502 O   0  0  0  0  0  0  0  0  0  0  0  0
    1.6639    3.8793    3.2005 C   0  0  0  0  0  0  0  0  0  0  0  0
    1.3948    4.1658    2.1893 H   0  0  0  0  0  0  0  0  0  0  0  0
    0.7996    4.0372    3.8411 H   0  0  0  0  0  0  0  0  0  0  0  0
    2.4805    4.5030    3.5543 H   0  0  0  0  0  0  0  0  0  0  0  0
    2.1726    1.9573    4.7169 C   0  0  0  0  0  0  0  0  0  0  0  0
    2.3989    0.8959    4.7482 H   0  0  0  0  0  0  0  0  0  0  0  0
    2.9319    2.5226    5.2484 H   0  0  0  0  0  0  0  0  0  0  0  0
    1.2111    2.1117    5.2017 H   0  0  0  0  0  0  0  0  0  0  0  0
    2.2782   -1.3309    0.1741 B   0  0  0  0  0  0  0  0  0  0  0  0
    3.0740   -2.3680    0.6051 O   0  0  0  0  0  0  0  0  0  0  0  0
    4.3632   -2.2979   -0.0182 C   0  0  0  0  0  0  0  0  0  0  0  0
    5.3135   -1.6829    1.0144 C   0  0  0  0  0  0  0  0  0  0  0  0
    4.9050   -0.7312    1.3425 H   0  0  0  0  0  0  0  0  0  0  0  0
    5.3589   -2.3439    1.8758 H   0  0  0  0  0  0  0  0  0  0  0  0
    6.3135   -1.5563    0.6111 H   0  0  0  0  0  0  0  0  0  0  0  0
    4.8361   -3.7087   -0.3680 C   0  0  0  0  0  0  0  0  0  0  0  0
    4.9555   -4.2741    0.5523 H   0  0  0  0  0  0  0  0  0  0  0  0
    5.7917   -3.6658   -0.8829 H   0  0  0  0  0  0  0  0  0  0  0  0
    4.1126   -4.2263   -0.9890 H   0  0  0  0  0  0  0  0  0  0  0  0
    4.1041   -1.3579   -1.2481 C   0  0  0  0  0  0  0  0  0  0  0  0
    2.8737   -0.7066   -0.8987 O   0  0  0  0  0  0  0  0  0  0  0  0
    5.1801   -0.2987   -1.4819 C   0  0  0  0  0  0  0  0  0  0  0  0
    6.1457   -0.7691   -1.6455 H   0  0  0  0  0  0  0  0  0  0  0  0
    4.9199    0.2851   -2.3614 H   0  0  0  0  0  0  0  0  0  0  0  0
    5.2345    0.3734   -0.6329 H   0  0  0  0  0  0  0  0  0  0  0  0
    3.8585   -2.1217   -2.5567 C   0  0  0  0  0  0  0  0  0  0  0  0
    3.0579   -2.8445   -2.4254 H   0  0  0  0  0  0  0  0  0  0  0  0
    3.5462   -1.4124   -3.3196 H   0  0  0  0  0  0  0  0  0  0  0  0
    4.7607   -2.6251   -2.8908 H   0  0  0  0  0  0  0  0  0  0  0  0
   -3.4437   -3.9347   -2.5901 H   0  0  0  0  0  0  0  0  0  0  0  0
   -4.9564    1.9409    0.7271 H   0  0  0  0  0  0  0  0  0  0  0  0
    0.2359   -1.6814    2.9603 C   0  0  0  0  0  0  0  0  0  0  0  0
   -1.0632   -2.0588    3.3140 C   0  0  0  0  0  0  0  0  0  0  0  0
    1.1810   -1.5461    3.8755 N   0  0  0  0  0  0  0  0  0  0  0  0
   -1.3755   -2.1943    4.6561 C   0  0  0  0  0  0  0  0  0  0  0  0
   -1.8178   -2.2441    2.5641 H   0  0  0  0  0  0  0  0  0  0  0  0
    0.9021   -1.7052    5.1626 C   0  0  0  0  0  0  0  0  0  0  0  0
   -0.3827   -2.0103    5.6044 C   0  0  0  0  0  0  0  0  0  0  0  0
   -2.3807   -2.4572    4.9589 H   0  0  0  0  0  0  0  0  0  0  0  0
    2.0393   -1.5694    6.1303 C   0  0  0  0  0  0  0  0  0  0  0  0
   -0.5885   -2.1234    6.6583 H   0  0  0  0  0  0  0  0  0  0  0  0
    2.9643   -1.4217    5.5821 H   0  0  0  0  0  0  0  0  0  0  0  0
    2.1219   -2.4684    6.7385 H   0  0  0  0  0  0  0  0  0  0  0  0
    1.8728   -0.7243    6.7961 H   0  0  0  0  0  0  0  0  0  0  0  0
  1  2  4  0  0  0  0
  2  3  4  0  0  0  0
  3  4  4  0  0  0  0
  4  5  4  0  0  0  0
  1  6  4  0  0  0  0
  5  6  4  0  0  0  0
  6  7  1  0  0  0  0
  5  8  1  0  0  0  0
  3  9  1  0  0  0  0
  2 10  1  0  0  0  0
 10 11  4  0  0  0  0
 11 12  4  0  0  0  0
 12 13  4  0  0  0  0
 13 14  4  0  0  0  0
 10 15  4  0  0  0  0
 14 15  4  0  0  0  0
 15 16  1  0  0  0  0
 13 17  1  0  0  0  0
 12 18  1  0  0  0  0
  1 19  1  0  0  0  0
 11 19  1  0  0  0  0
 19 20  1  0  0  0  0
 19 21  1  0  0  0  0
 21 22  1  0  0  0  0
 22 23  1  0  0  0  0
 23 24  1  0  0  0  0
 24 25  1  0  0  0  0
 24 26  1  0  0  0  0
 24 27  1  0  0  0  0
 23 28  1  0  0  0  0
 28 29  1  0  0  0  0
 28 30  1  0  0  0  0
 28 31  1  0  0  0  0
 23 32  1  0  0  0  0
 21 33  1  0  0  0  0
 32 33  1  0  0  0  0
 32 34  1  0  0  0  0
 34 35  1  0  0  0  0
 34 36  1  0  0  0  0
 34 37  1  0  0  0  0
 32 38  1  0  0  0  0
 38 39  1  0  0  0  0
 38 40  1  0  0  0  0
 38 41  1  0  0  0  0
 19 42  1  0  0  0  0
 42 43  1  0  0  0  0
 43 44  1  0  0  0  0
 44 45  1  0  0  0  0
 45 46  1  0  0  0  0
 45 47  1  0  0  0  0
 45 48  1  0  0  0  0
 44 49  1  0  0  0  0
 49 50  1  0  0  0  0
 49 51  1  0  0  0  0
 49 52  1  0  0  0  0
 44 53  1  0  0  0  0
 42 54  1  0  0  0  0
 53 54  1  0  0  0  0
 53 55  1  0  0  0  0
 55 56  1  0  0  0  0
 55 57  1  0  0  0  0
 55 58  1  0  0  0  0
 53 59  1  0  0  0  0
 59 60  1  0  0  0  0
 59 61  1  0  0  0  0
 59 62  1  0  0  0  0
 19 63  1  0  0  0  0
 63 64  1  0  0  0  0
 64 65  1  0  0  0  0
 65 66  1  0  0  0  0
 66 67  1  0  0  0  0
 66 68  1  0  0  0  0
 66 69  1  0  0  0  0
 65 70  1  0  0  0  0
 70 71  1  0  0  0  0
 70 72  1  0  0  0  0
 70 73  1  0  0  0  0
 65 74  1  0  0  0  0
 63 75  1  0  0  0  0
 74 75  1  0  0  0  0
 74 76  1  0  0  0  0
 76 77  1  0  0  0  0
 76 78  1  0  0  0  0
 76 79  1  0  0  0  0
 74 80  1  0  0  0  0
 80 81  1  0  0  0  0
 80 82  1  0  0  0  0
 80 83  1  0  0  0  0
  4 84  1  0  0  0  0
 14 85  1  0  0  0  0
 19 86  1  0  0  0  0
 20 86  1  0  0  0  0
 86 87  4  0  0  0  0
 86 88  4  0  0  0  0
 87 89  4  0  0  0  0
 87 90  1  0  0  0  0
 88 91  4  0  0  0  0
 89 92  4  0  0  0  0
 91 92  4  0  0  0  0
 89 93  1  0  0  0  0
 91 94  1  0  0  0  0
 92 95  1  0  0  0  0
 94 96  1  0  0  0  0
 94 97  1  0  0  0  0
 94 98  1  0  0  0  0
M  END
