
  xtb     01142213443D
 xtb: 6.4.1 (1a32961)
 99106  0     0  0            999 V2000
   -0.9109   -2.0780   -0.3206 N   0  0  0  0  0  0  0  0  0  0  0  0
   -2.1741   -1.6464   -0.4884 C   0  0  0  0  0  0  0  0  0  0  0  0
   -3.0661   -2.3365   -1.3191 C   0  0  0  0  0  0  0  0  0  0  0  0
   -2.6450   -3.4644   -1.9895 C   0  0  0  0  0  0  0  0  0  0  0  0
   -1.3308   -3.8910   -1.8157 C   0  0  0  0  0  0  0  0  0  0  0  0
   -0.5130   -3.1671   -0.9727 C   0  0  0  0  0  0  0  0  0  0  0  0
    0.5112   -3.4655   -0.7981 H   0  0  0  0  0  0  0  0  0  0  0  0
   -0.9580   -4.7673   -2.3205 H   0  0  0  0  0  0  0  0  0  0  0  0
   -4.0820   -1.9973   -1.4366 H   0  0  0  0  0  0  0  0  0  0  0  0
   -2.5425   -0.4347    0.2349 C   0  0  0  0  0  0  0  0  0  0  0  0
   -1.6086    0.0790    1.0630 N   0  0  0  0  0  0  0  0  0  0  0  0
   -1.8974    1.1871    1.7416 C   0  0  0  0  0  0  0  0  0  0  0  0
   -3.1073    1.8449    1.6473 C   0  0  0  0  0  0  0  0  0  0  0  0
   -4.0770    1.3335    0.7893 C   0  0  0  0  0  0  0  0  0  0  0  0
   -3.7862    0.1892    0.0775 C   0  0  0  0  0  0  0  0  0  0  0  0
   -4.5192   -0.2135   -0.6014 H   0  0  0  0  0  0  0  0  0  0  0  0
   -3.2901    2.7341    2.2284 H   0  0  0  0  0  0  0  0  0  0  0  0
   -1.1076    1.5529    2.3794 H   0  0  0  0  0  0  0  0  0  0  0  0
    0.4215   -0.8165    0.9133 Ir  0  0  0  0  0  0  0  0  0  0  0  0
    0.8726   -2.2303    1.5405 H   0  0  0  0  0  0  0  0  0  0  0  0
    0.4269    0.5413   -0.6566 B   0  0  0  0  0  0  0  0  0  0  0  0
   -0.0780    0.1614   -1.8863 O   0  0  0  0  0  0  0  0  0  0  0  0
   -0.2157    1.3061   -2.7357 C   0  0  0  0  0  0  0  0  0  0  0  0
    0.2072    0.9406   -4.1564 C   0  0  0  0  0  0  0  0  0  0  0  0
    1.1929    0.4874   -4.1582 H   0  0  0  0  0  0  0  0  0  0  0  0
    0.2087    1.8254   -4.7876 H   0  0  0  0  0  0  0  0  0  0  0  0
   -0.4977    0.2193   -4.5626 H   0  0  0  0  0  0  0  0  0  0  0  0
   -1.7027    1.6897   -2.7339 C   0  0  0  0  0  0  0  0  0  0  0  0
   -1.8939    2.5258   -3.4000 H   0  0  0  0  0  0  0  0  0  0  0  0
   -2.2828    0.8310   -3.0659 H   0  0  0  0  0  0  0  0  0  0  0  0
   -2.0226    1.9429   -1.7252 H   0  0  0  0  0  0  0  0  0  0  0  0
    0.6866    2.3688   -2.0247 C   0  0  0  0  0  0  0  0  0  0  0  0
    0.7434    1.8794   -0.6770 O   0  0  0  0  0  0  0  0  0  0  0  0
    2.1249    2.3668   -2.5562 C   0  0  0  0  0  0  0  0  0  0  0  0
    2.5405    1.3682   -2.4470 H   0  0  0  0  0  0  0  0  0  0  0  0
    2.1659    2.6908   -3.5920 H   0  0  0  0  0  0  0  0  0  0  0  0
    2.7229    3.0422   -1.9492 H   0  0  0  0  0  0  0  0  0  0  0  0
    0.1393    3.7946   -2.0386 C   0  0  0  0  0  0  0  0  0  0  0  0
   -0.8047    3.8599   -1.5070 H   0  0  0  0  0  0  0  0  0  0  0  0
    0.8509    4.4525   -1.5459 H   0  0  0  0  0  0  0  0  0  0  0  0
    0.0033    4.1302   -3.0634 H   0  0  0  0  0  0  0  0  0  0  0  0
    1.5687    0.6052    1.9252 B   0  0  0  0  0  0  0  0  0  0  0  0
    2.9390    0.7028    2.0245 O   0  0  0  0  0  0  0  0  0  0  0  0
    3.2877    2.0182    2.4832 C   0  0  0  0  0  0  0  0  0  0  0  0
    4.5307    1.9600    3.3662 C   0  0  0  0  0  0  0  0  0  0  0  0
    4.3881    1.2750    4.1938 H   0  0  0  0  0  0  0  0  0  0  0  0
    5.3722    1.6123    2.7722 H   0  0  0  0  0  0  0  0  0  0  0  0
    4.7576    2.9510    3.7504 H   0  0  0  0  0  0  0  0  0  0  0  0
    3.5850    2.8460    1.2268 C   0  0  0  0  0  0  0  0  0  0  0  0
    3.8688    3.8643    1.4762 H   0  0  0  0  0  0  0  0  0  0  0  0
    4.3985    2.3698    0.6847 H   0  0  0  0  0  0  0  0  0  0  0  0
    2.7088    2.8352    0.5834 H   0  0  0  0  0  0  0  0  0  0  0  0
    1.9819    2.4813    3.2085 C   0  0  0  0  0  0  0  0  0  0  0  0
    0.9812    1.6578    2.5931 O   0  0  0  0  0  0  0  0  0  0  0  0
    1.6206    3.9513    3.0036 C   0  0  0  0  0  0  0  0  0  0  0  0
    1.4002    4.1456    1.9592 H   0  0  0  0  0  0  0  0  0  0  0  0
    0.7358    4.1874    3.5896 H   0  0  0  0  0  0  0  0  0  0  0  0
    2.4381    4.5875    3.3315 H   0  0  0  0  0  0  0  0  0  0  0  0
    1.9810    2.1589    4.7082 C   0  0  0  0  0  0  0  0  0  0  0  0
    2.2210    1.1105    4.8676 H   0  0  0  0  0  0  0  0  0  0  0  0
    2.6891    2.7874    5.2401 H   0  0  0  0  0  0  0  0  0  0  0  0
    0.9835    2.3383    5.1030 H   0  0  0  0  0  0  0  0  0  0  0  0
    2.2782   -1.3309    0.1741 B   0  0  0  0  0  0  0  0  0  0  0  0
    2.9297   -2.5250    0.3790 O   0  0  0  0  0  0  0  0  0  0  0  0
    4.2433   -2.4664   -0.1931 C   0  0  0  0  0  0  0  0  0  0  0  0
    5.1988   -2.0851    0.9415 C   0  0  0  0  0  0  0  0  0  0  0  0
    4.9033   -1.1172    1.3392 H   0  0  0  0  0  0  0  0  0  0  0  0
    5.0851   -2.8152    1.7381 H   0  0  0  0  0  0  0  0  0  0  0  0
    6.2311   -2.0652    0.6049 H   0  0  0  0  0  0  0  0  0  0  0  0
    4.6234   -3.8355   -0.7505 C   0  0  0  0  0  0  0  0  0  0  0  0
    4.6965   -4.5376    0.0756 H   0  0  0  0  0  0  0  0  0  0  0  0
    5.5843   -3.7789   -1.2546 H   0  0  0  0  0  0  0  0  0  0  0  0
    3.8720   -4.2015   -1.4424 H   0  0  0  0  0  0  0  0  0  0  0  0
    4.0955   -1.3254   -1.2528 C   0  0  0  0  0  0  0  0  0  0  0  0
    2.9838   -0.5747   -0.7417 O   0  0  0  0  0  0  0  0  0  0  0  0
    5.3122   -0.4140   -1.3953 C   0  0  0  0  0  0  0  0  0  0  0  0
    6.1875   -0.9974   -1.6679 H   0  0  0  0  0  0  0  0  0  0  0  0
    5.1195    0.3200   -2.1737 H   0  0  0  0  0  0  0  0  0  0  0  0
    5.5004    0.1166   -0.4687 H   0  0  0  0  0  0  0  0  0  0  0  0
    3.6904   -1.8501   -2.6375 C   0  0  0  0  0  0  0  0  0  0  0  0
    2.8020   -2.4704   -2.5527 H   0  0  0  0  0  0  0  0  0  0  0  0
    3.4478   -1.0032   -3.2751 H   0  0  0  0  0  0  0  0  0  0  0  0
    4.4984   -2.4147   -3.0929 H   0  0  0  0  0  0  0  0  0  0  0  0
   -3.3214   -4.0048   -2.6340 H   0  0  0  0  0  0  0  0  0  0  0  0
   -5.0335    1.8215    0.6792 H   0  0  0  0  0  0  0  0  0  0  0  0
    0.2359   -1.6814    2.9603 C   0  0  0  0  0  0  0  0  0  0  0  0
   -1.0120   -1.7145    3.5138 C   0  0  0  0  0  0  0  0  0  0  0  0
    1.1190   -1.7196    4.0931 C   0  0  0  0  0  0  0  0  0  0  0  0
   -0.9644   -1.7354    4.8721 O   0  0  0  0  0  0  0  0  0  0  0  0
   -1.9920   -1.7334    3.0805 H   0  0  0  0  0  0  0  0  0  0  0  0
    0.3279   -1.7274    5.2115 C   0  0  0  0  0  0  0  0  0  0  0  0
    2.5748   -1.8868    4.1037 C   0  0  0  0  0  0  0  0  0  0  0  0
    0.5708   -1.7624    6.2551 H   0  0  0  0  0  0  0  0  0  0  0  0
    3.1991   -2.6285    3.3846 O   0  0  0  0  0  0  0  0  0  0  0  0
    3.1520   -1.1831    5.0932 O   0  0  0  0  0  0  0  0  0  0  0  0
    4.5583   -1.3715    5.2531 C   0  0  0  0  0  0  0  0  0  0  0  0
    4.8638   -0.6916    6.0439 H   0  0  0  0  0  0  0  0  0  0  0  0
    5.0739   -1.1478    4.3177 H   0  0  0  0  0  0  0  0  0  0  0  0
    4.7659   -2.4064    5.5319 H   0  0  0  0  0  0  0  0  0  0  0  0
  1  2  4  0  0  0  0
  2  3  4  0  0  0  0
  3  4  4  0  0  0  0
  4  5  4  0  0  0  0
  1  6  4  0  0  0  0
  5  6  4  0  0  0  0
  6  7  1  0  0  0  0
  5  8  1  0  0  0  0
  3  9  1  0  0  0  0
  2 10  1  0  0  0  0
 10 11  4  0  0  0  0
 11 12  4  0  0  0  0
 12 13  4  0  0  0  0
 13 14  4  0  0  0  0
 10 15  4  0  0  0  0
 14 15  4  0  0  0  0
 15 16  1  0  0  0  0
 13 17  1  0  0  0  0
 12 18  1  0  0  0  0
  1 19  1  0  0  0  0
 11 19  1  0  0  0  0
 19 20  1  0  0  0  0
 19 21  1  0  0  0  0
 21 22  1  0  0  0  0
 22 23  1  0  0  0  0
 23 24  1  0  0  0  0
 24 25  1  0  0  0  0
 24 26  1  0  0  0  0
 24 27  1  0  0  0  0
 23 28  1  0  0  0  0
 28 29  1  0  0  0  0
 28 30  1  0  0  0  0
 28 31  1  0  0  0  0
 23 32  1  0  0  0  0
 21 33  1  0  0  0  0
 32 33  1  0  0  0  0
 32 34  1  0  0  0  0
 34 35  1  0  0  0  0
 34 36  1  0  0  0  0
 34 37  1  0  0  0  0
 32 38  1  0  0  0  0
 38 39  1  0  0  0  0
 38 40  1  0  0  0  0
 38 41  1  0  0  0  0
 19 42  1  0  0  0  0
 42 43  1  0  0  0  0
 43 44  1  0  0  0  0
 44 45  1  0  0  0  0
 45 46  1  0  0  0  0
 45 47  1  0  0  0  0
 45 48  1  0  0  0  0
 44 49  1  0  0  0  0
 49 50  1  0  0  0  0
 49 51  1  0  0  0  0
 49 52  1  0  0  0  0
 44 53  1  0  0  0  0
 42 54  1  0  0  0  0
 53 54  1  0  0  0  0
 53 55  1  0  0  0  0
 55 56  1  0  0  0  0
 55 57  1  0  0  0  0
 55 58  1  0  0  0  0
 53 59  1  0  0  0  0
 59 60  1  0  0  0  0
 59 61  1  0  0  0  0
 59 62  1  0  0  0  0
 19 63  1  0  0  0  0
 63 64  1  0  0  0  0
 64 65  1  0  0  0  0
 65 66  1  0  0  0  0
 66 67  1  0  0  0  0
 66 68  1  0  0  0  0
 66 69  1  0  0  0  0
 65 70  1  0  0  0  0
 70 71  1  0  0  0  0
 70 72  1  0  0  0  0
 70 73  1  0  0  0  0
 65 74  1  0  0  0  0
 63 75  1  0  0  0  0
 74 75  1  0  0  0  0
 74 76  1  0  0  0  0
 76 77  1  0  0  0  0
 76 78  1  0  0  0  0
 76 79  1  0  0  0  0
 74 80  1  0  0  0  0
 80 81  1  0  0  0  0
 80 82  1  0  0  0  0
 80 83  1  0  0  0  0
  4 84  1  0  0  0  0
 14 85  1  0  0  0  0
 19 86  1  0  0  0  0
 20 86  1  0  0  0  0
 86 87  2  0  0  0  0
 86 88  4  0  0  0  0
 87 89  1  0  0  0  0
 87 90  1  0  0  0  0
 88 91  2  0  0  0  0
 89 91  1  0  0  0  0
 88 92  1  0  0  0  0
 91 93  1  0  0  0  0
 92 94  2  0  0  0  0
 92 95  1  0  0  0  0
 95 96  1  0  0  0  0
 96 97  1  0  0  0  0
 96 98  1  0  0  0  0
 96 99  1  0  0  0  0
M  END
