
  xtb     01142215243D
 xtb: 6.4.1 (1a32961)
 96103  0     0  0            999 V2000
   -0.9846   -2.0140   -0.3267 N   0  0  0  0  0  0  0  0  0  0  0  0
   -2.2079   -1.4853   -0.5120 C   0  0  0  0  0  0  0  0  0  0  0  0
   -3.0915   -2.0289   -1.4523 C   0  0  0  0  0  0  0  0  0  0  0  0
   -2.7051   -3.1149   -2.2081 C   0  0  0  0  0  0  0  0  0  0  0  0
   -1.4347   -3.6475   -2.0087 C   0  0  0  0  0  0  0  0  0  0  0  0
   -0.6219   -3.0626   -1.0593 C   0  0  0  0  0  0  0  0  0  0  0  0
    0.3695   -3.4461   -0.8639 H   0  0  0  0  0  0  0  0  0  0  0  0
   -1.0901   -4.4959   -2.5770 H   0  0  0  0  0  0  0  0  0  0  0  0
   -4.0713   -1.6048   -1.5958 H   0  0  0  0  0  0  0  0  0  0  0  0
   -2.5394   -0.3227    0.3062 C   0  0  0  0  0  0  0  0  0  0  0  0
   -1.5791    0.1142    1.1473 N   0  0  0  0  0  0  0  0  0  0  0  0
   -1.8337    1.1683    1.9182 C   0  0  0  0  0  0  0  0  0  0  0  0
   -3.0326    1.8527    1.8991 C   0  0  0  0  0  0  0  0  0  0  0  0
   -4.0280    1.4246    1.0257 C   0  0  0  0  0  0  0  0  0  0  0  0
   -3.7752    0.3300    0.2260 C   0  0  0  0  0  0  0  0  0  0  0  0
   -4.5350   -0.0142   -0.4556 H   0  0  0  0  0  0  0  0  0  0  0  0
   -3.1878    2.6971    2.5508 H   0  0  0  0  0  0  0  0  0  0  0  0
   -1.0272    1.4666    2.5703 H   0  0  0  0  0  0  0  0  0  0  0  0
    0.4215   -0.8165    0.9133 Ir  0  0  0  0  0  0  0  0  0  0  0  0
    0.8726   -2.2303    1.5405 H   0  0  0  0  0  0  0  0  0  0  0  0
    0.4006    0.5540   -0.6501 B   0  0  0  0  0  0  0  0  0  0  0  0
   -0.1071    0.1845   -1.8804 O   0  0  0  0  0  0  0  0  0  0  0  0
   -0.2171    1.3322   -2.7304 C   0  0  0  0  0  0  0  0  0  0  0  0
    0.2064    0.9598   -4.1487 C   0  0  0  0  0  0  0  0  0  0  0  0
    1.1770    0.4752   -4.1421 H   0  0  0  0  0  0  0  0  0  0  0  0
    0.2429    1.8473   -4.7751 H   0  0  0  0  0  0  0  0  0  0  0  0
   -0.5176    0.2640   -4.5658 H   0  0  0  0  0  0  0  0  0  0  0  0
   -1.6951    1.7483   -2.7346 C   0  0  0  0  0  0  0  0  0  0  0  0
   -1.8646    2.5869   -3.4033 H   0  0  0  0  0  0  0  0  0  0  0  0
   -2.2930    0.9020   -3.0670 H   0  0  0  0  0  0  0  0  0  0  0  0
   -2.0128    2.0111   -1.7275 H   0  0  0  0  0  0  0  0  0  0  0  0
    0.7038    2.3735   -2.0140 C   0  0  0  0  0  0  0  0  0  0  0  0
    0.7230    1.8917   -0.6622 O   0  0  0  0  0  0  0  0  0  0  0  0
    2.1498    2.3189   -2.5211 C   0  0  0  0  0  0  0  0  0  0  0  0
    2.5258    1.3050   -2.4067 H   0  0  0  0  0  0  0  0  0  0  0  0
    2.2204    2.6427   -3.5554 H   0  0  0  0  0  0  0  0  0  0  0  0
    2.7612    2.9713   -1.9027 H   0  0  0  0  0  0  0  0  0  0  0  0
    0.2017    3.8152   -2.0498 C   0  0  0  0  0  0  0  0  0  0  0  0
   -0.7503    3.9156   -1.5381 H   0  0  0  0  0  0  0  0  0  0  0  0
    0.9242    4.4556   -1.5499 H   0  0  0  0  0  0  0  0  0  0  0  0
    0.0958    4.1451   -3.0801 H   0  0  0  0  0  0  0  0  0  0  0  0
    1.6230    0.6358    1.8254 B   0  0  0  0  0  0  0  0  0  0  0  0
    2.9433    0.9302    1.6222 O   0  0  0  0  0  0  0  0  0  0  0  0
    3.2938    2.1536    2.2838 C   0  0  0  0  0  0  0  0  0  0  0  0
    4.6634    2.0026    2.9455 C   0  0  0  0  0  0  0  0  0  0  0  0
    4.6933    1.1217    3.5784 H   0  0  0  0  0  0  0  0  0  0  0  0
    5.4201    1.8891    2.1733 H   0  0  0  0  0  0  0  0  0  0  0  0
    4.8956    2.8854    3.5347 H   0  0  0  0  0  0  0  0  0  0  0  0
    3.3697    3.2301    1.1947 C   0  0  0  0  0  0  0  0  0  0  0  0
    3.6065    4.2041    1.6123 H   0  0  0  0  0  0  0  0  0  0  0  0
    4.1458    2.9482    0.4870 H   0  0  0  0  0  0  0  0  0  0  0  0
    2.4246    3.2616    0.6591 H   0  0  0  0  0  0  0  0  0  0  0  0
    2.1003    2.3697    3.2797 C   0  0  0  0  0  0  0  0  0  0  0  0
    1.0882    1.4952    2.7615 O   0  0  0  0  0  0  0  0  0  0  0  0
    1.5489    3.7949    3.3247 C   0  0  0  0  0  0  0  0  0  0  0  0
    1.1563    4.0870    2.3564 H   0  0  0  0  0  0  0  0  0  0  0  0
    0.7393    3.8373    4.0493 H   0  0  0  0  0  0  0  0  0  0  0  0
    2.3271    4.4890    3.6295 H   0  0  0  0  0  0  0  0  0  0  0  0
    2.4115    1.9116    4.7099 C   0  0  0  0  0  0  0  0  0  0  0  0
    2.7833    0.8922    4.7041 H   0  0  0  0  0  0  0  0  0  0  0  0
    3.1414    2.5651    5.1778 H   0  0  0  0  0  0  0  0  0  0  0  0
    1.4922    1.9334    5.2910 H   0  0  0  0  0  0  0  0  0  0  0  0
    2.2782   -1.3309    0.1741 B   0  0  0  0  0  0  0  0  0  0  0  0
    3.0630   -2.3458    0.6775 O   0  0  0  0  0  0  0  0  0  0  0  0
    4.3736   -2.2896    0.1004 C   0  0  0  0  0  0  0  0  0  0  0  0
    5.2740   -1.6140    1.1398 C   0  0  0  0  0  0  0  0  0  0  0  0
    4.8584   -0.6409    1.3845 H   0  0  0  0  0  0  0  0  0  0  0  0
    5.2627   -2.2154    2.0453 H   0  0  0  0  0  0  0  0  0  0  0  0
    6.2956   -1.5200    0.7851 H   0  0  0  0  0  0  0  0  0  0  0  0
    4.8750   -3.7090   -0.1639 C   0  0  0  0  0  0  0  0  0  0  0  0
    4.9736   -4.2261    0.7869 H   0  0  0  0  0  0  0  0  0  0  0  0
    5.8456   -3.6779   -0.6507 H   0  0  0  0  0  0  0  0  0  0  0  0
    4.1778   -4.2669   -0.7800 H   0  0  0  0  0  0  0  0  0  0  0  0
    4.1495   -1.4111   -1.1805 C   0  0  0  0  0  0  0  0  0  0  0  0
    2.9021   -0.7545   -0.9052 O   0  0  0  0  0  0  0  0  0  0  0  0
    5.2244   -0.3538   -1.4259 C   0  0  0  0  0  0  0  0  0  0  0  0
    6.2003   -0.8213   -1.5217 H   0  0  0  0  0  0  0  0  0  0  0  0
    4.9971    0.1788   -2.3460 H   0  0  0  0  0  0  0  0  0  0  0  0
    5.2351    0.3629   -0.6124 H   0  0  0  0  0  0  0  0  0  0  0  0
    3.9537   -2.2388   -2.4576 C   0  0  0  0  0  0  0  0  0  0  0  0
    3.1592   -2.9660   -2.3153 H   0  0  0  0  0  0  0  0  0  0  0  0
    3.6559   -1.5703   -3.2617 H   0  0  0  0  0  0  0  0  0  0  0  0
    4.8723   -2.7443   -2.7393 H   0  0  0  0  0  0  0  0  0  0  0  0
   -3.3752   -3.5405   -2.9394 H   0  0  0  0  0  0  0  0  0  0  0  0
   -4.9776    1.9353    0.9738 H   0  0  0  0  0  0  0  0  0  0  0  0
    0.2359   -1.6814    2.9603 C   0  0  0  0  0  0  0  0  0  0  0  0
   -1.0585   -2.0280    3.3525 C   0  0  0  0  0  0  0  0  0  0  0  0
    1.1685   -1.5936    3.9871 C   0  0  0  0  0  0  0  0  0  0  0  0
   -1.4191   -2.1759    4.6819 C   0  0  0  0  0  0  0  0  0  0  0  0
   -1.8181   -2.1882    2.6024 H   0  0  0  0  0  0  0  0  0  0  0  0
    2.4774   -1.3677    3.6997 F   0  0  0  0  0  0  0  0  0  0  0  0
    0.8551   -1.7377    5.3269 C   0  0  0  0  0  0  0  0  0  0  0  0
   -0.4585   -2.0159    5.6651 C   0  0  0  0  0  0  0  0  0  0  0  0
   -2.4345   -2.4201    4.9518 H   0  0  0  0  0  0  0  0  0  0  0  0
    1.6226   -1.6415    6.0783 H   0  0  0  0  0  0  0  0  0  0  0  0
   -0.8888   -2.1904    7.3375 Cl  0  0  0  0  0  0  0  0  0  0  0  0
  1  2  4  0  0  0  0
  2  3  4  0  0  0  0
  3  4  4  0  0  0  0
  4  5  4  0  0  0  0
  1  6  4  0  0  0  0
  5  6  4  0  0  0  0
  6  7  1  0  0  0  0
  5  8  1  0  0  0  0
  3  9  1  0  0  0  0
  2 10  1  0  0  0  0
 10 11  4  0  0  0  0
 11 12  4  0  0  0  0
 12 13  4  0  0  0  0
 13 14  4  0  0  0  0
 10 15  4  0  0  0  0
 14 15  4  0  0  0  0
 15 16  1  0  0  0  0
 13 17  1  0  0  0  0
 12 18  1  0  0  0  0
  1 19  1  0  0  0  0
 11 19  1  0  0  0  0
 19 20  1  0  0  0  0
 19 21  1  0  0  0  0
 21 22  1  0  0  0  0
 22 23  1  0  0  0  0
 23 24  1  0  0  0  0
 24 25  1  0  0  0  0
 24 26  1  0  0  0  0
 24 27  1  0  0  0  0
 23 28  1  0  0  0  0
 28 29  1  0  0  0  0
 28 30  1  0  0  0  0
 28 31  1  0  0  0  0
 23 32  1  0  0  0  0
 21 33  1  0  0  0  0
 32 33  1  0  0  0  0
 32 34  1  0  0  0  0
 34 35  1  0  0  0  0
 34 36  1  0  0  0  0
 34 37  1  0  0  0  0
 32 38  1  0  0  0  0
 38 39  1  0  0  0  0
 38 40  1  0  0  0  0
 38 41  1  0  0  0  0
 19 42  1  0  0  0  0
 42 43  1  0  0  0  0
 43 44  1  0  0  0  0
 44 45  1  0  0  0  0
 45 46  1  0  0  0  0
 45 47  1  0  0  0  0
 45 48  1  0  0  0  0
 44 49  1  0  0  0  0
 49 50  1  0  0  0  0
 49 51  1  0  0  0  0
 49 52  1  0  0  0  0
 44 53  1  0  0  0  0
 42 54  1  0  0  0  0
 53 54  1  0  0  0  0
 53 55  1  0  0  0  0
 55 56  1  0  0  0  0
 55 57  1  0  0  0  0
 55 58  1  0  0  0  0
 53 59  1  0  0  0  0
 59 60  1  0  0  0  0
 59 61  1  0  0  0  0
 59 62  1  0  0  0  0
 19 63  1  0  0  0  0
 63 64  1  0  0  0  0
 64 65  1  0  0  0  0
 65 66  1  0  0  0  0
 66 67  1  0  0  0  0
 66 68  1  0  0  0  0
 66 69  1  0  0  0  0
 65 70  1  0  0  0  0
 70 71  1  0  0  0  0
 70 72  1  0  0  0  0
 70 73  1  0  0  0  0
 65 74  1  0  0  0  0
 63 75  1  0  0  0  0
 74 75  1  0  0  0  0
 74 76  1  0  0  0  0
 76 77  1  0  0  0  0
 76 78  1  0  0  0  0
 76 79  1  0  0  0  0
 74 80  1  0  0  0  0
 80 81  1  0  0  0  0
 80 82  1  0  0  0  0
 80 83  1  0  0  0  0
  4 84  1  0  0  0  0
 14 85  1  0  0  0  0
 19 86  1  0  0  0  0
 20 86  1  0  0  0  0
 86 87  4  0  0  0  0
 86 88  4  0  0  0  0
 87 89  4  0  0  0  0
 87 90  1  0  0  0  0
 88 91  1  0  0  0  0
 88 92  4  0  0  0  0
 89 93  4  0  0  0  0
 92 93  4  0  0  0  0
 89 94  1  0  0  0  0
 92 95  1  0  0  0  0
 93 96  1  0  0  0  0
M  END
