    9
Created with kallisto
C     -0.0968   -1.4253   -0.0039
C      1.1144   -0.7721    0.0097
C     -1.2094   -0.6159   -0.0200
N      1.2365    0.5683    0.0103
H      2.0498   -1.3236    0.0208
N     -1.1507    0.7289   -0.0202
H     -2.2103   -1.0369   -0.0341
C      0.0838    1.2560   -0.0037
H      0.1566    2.3379   -0.0003
