
  xtb     01142213163D
 xtb: 6.4.1 (1a32961)
 94101  0     0  0            999 V2000
   -0.9281   -2.0494   -0.3462 N   0  0  0  0  0  0  0  0  0  0  0  0
   -2.1862   -1.5969   -0.4930 C   0  0  0  0  0  0  0  0  0  0  0  0
   -3.0786   -2.2271   -1.3695 C   0  0  0  0  0  0  0  0  0  0  0  0
   -2.6655   -3.3201   -2.1004 C   0  0  0  0  0  0  0  0  0  0  0  0
   -1.3584   -3.7721   -1.9425 C   0  0  0  0  0  0  0  0  0  0  0  0
   -0.5384   -3.1035   -1.0571 C   0  0  0  0  0  0  0  0  0  0  0  0
    0.4820   -3.4212   -0.8959 H   0  0  0  0  0  0  0  0  0  0  0  0
   -0.9921   -4.6239   -2.4920 H   0  0  0  0  0  0  0  0  0  0  0  0
   -4.0885   -1.8683   -1.4779 H   0  0  0  0  0  0  0  0  0  0  0  0
   -2.5520   -0.4306    0.3049 C   0  0  0  0  0  0  0  0  0  0  0  0
   -1.6068    0.0510    1.1393 N   0  0  0  0  0  0  0  0  0  0  0  0
   -1.9001    1.1069    1.8943 C   0  0  0  0  0  0  0  0  0  0  0  0
   -3.1232    1.7465    1.8685 C   0  0  0  0  0  0  0  0  0  0  0  0
   -4.1023    1.2725    1.0009 C   0  0  0  0  0  0  0  0  0  0  0  0
   -3.8088    0.1787    0.2145 C   0  0  0  0  0  0  0  0  0  0  0  0
   -4.5527   -0.1976   -0.4675 H   0  0  0  0  0  0  0  0  0  0  0  0
   -3.3073    2.5932    2.5096 H   0  0  0  0  0  0  0  0  0  0  0  0
   -1.1032    1.4511    2.5356 H   0  0  0  0  0  0  0  0  0  0  0  0
    0.4215   -0.8165    0.9133 Ir  0  0  0  0  0  0  0  0  0  0  0  0
    0.8726   -2.2303    1.5405 H   0  0  0  0  0  0  0  0  0  0  0  0
    0.4167    0.5846   -0.6260 B   0  0  0  0  0  0  0  0  0  0  0  0
   -0.1873    0.2657   -1.8268 O   0  0  0  0  0  0  0  0  0  0  0  0
   -0.2637    1.4282   -2.6604 C   0  0  0  0  0  0  0  0  0  0  0  0
    0.0443    1.0438   -4.1052 C   0  0  0  0  0  0  0  0  0  0  0  0
    0.9772    0.4930   -4.1638 H   0  0  0  0  0  0  0  0  0  0  0  0
    0.1047    1.9345   -4.7250 H   0  0  0  0  0  0  0  0  0  0  0  0
   -0.7516    0.4063   -4.4825 H   0  0  0  0  0  0  0  0  0  0  0  0
   -1.7052    1.9484   -2.5693 C   0  0  0  0  0  0  0  0  0  0  0  0
   -1.8545    2.8071   -3.2168 H   0  0  0  0  0  0  0  0  0  0  0  0
   -2.3812    1.1516   -2.8735 H   0  0  0  0  0  0  0  0  0  0  0  0
   -1.9418    2.2168   -1.5415 H   0  0  0  0  0  0  0  0  0  0  0  0
    0.7736    2.3922   -1.9960 C   0  0  0  0  0  0  0  0  0  0  0  0
    0.8516    1.8883   -0.6540 O   0  0  0  0  0  0  0  0  0  0  0  0
    2.1765    2.2499   -2.5986 C   0  0  0  0  0  0  0  0  0  0  0  0
    2.4888    1.2109   -2.5272 H   0  0  0  0  0  0  0  0  0  0  0  0
    2.2033    2.5901   -3.6296 H   0  0  0  0  0  0  0  0  0  0  0  0
    2.8701    2.8458   -2.0101 H   0  0  0  0  0  0  0  0  0  0  0  0
    0.3693    3.8648   -1.9804 C   0  0  0  0  0  0  0  0  0  0  0  0
   -0.5341    4.0207   -1.3991 H   0  0  0  0  0  0  0  0  0  0  0  0
    1.1676    4.4484   -1.5284 H   0  0  0  0  0  0  0  0  0  0  0  0
    0.2114    4.2164   -2.9967 H   0  0  0  0  0  0  0  0  0  0  0  0
    1.5725    0.6314    1.8807 B   0  0  0  0  0  0  0  0  0  0  0  0
    2.9405    0.7402    1.9229 O   0  0  0  0  0  0  0  0  0  0  0  0
    3.3156    2.0140    2.4693 C   0  0  0  0  0  0  0  0  0  0  0  0
    4.5414    1.8528    3.3662 C   0  0  0  0  0  0  0  0  0  0  0  0
    4.3782    1.0883    4.1187 H   0  0  0  0  0  0  0  0  0  0  0  0
    5.3913    1.5536    2.7581 H   0  0  0  0  0  0  0  0  0  0  0  0
    4.7743    2.7967    3.8516 H   0  0  0  0  0  0  0  0  0  0  0  0
    3.6643    2.9090    1.2740 C   0  0  0  0  0  0  0  0  0  0  0  0
    3.9459    3.9084    1.5915 H   0  0  0  0  0  0  0  0  0  0  0  0
    4.4963    2.4601    0.7364 H   0  0  0  0  0  0  0  0  0  0  0  0
    2.8120    2.9452    0.6001 H   0  0  0  0  0  0  0  0  0  0  0  0
    2.0116    2.4701    3.2092 C   0  0  0  0  0  0  0  0  0  0  0  0
    0.9996    1.6587    2.5946 O   0  0  0  0  0  0  0  0  0  0  0  0
    1.6510    3.9432    3.0242 C   0  0  0  0  0  0  0  0  0  0  0  0
    1.4547    4.1597    1.9795 H   0  0  0  0  0  0  0  0  0  0  0  0
    0.7509    4.1631    3.5932 H   0  0  0  0  0  0  0  0  0  0  0  0
    2.4571    4.5750    3.3868 H   0  0  0  0  0  0  0  0  0  0  0  0
    2.0152    2.1356    4.7062 C   0  0  0  0  0  0  0  0  0  0  0  0
    2.2142    1.0780    4.8580 H   0  0  0  0  0  0  0  0  0  0  0  0
    2.7520    2.7307    5.2368 H   0  0  0  0  0  0  0  0  0  0  0  0
    1.0300    2.3495    5.1146 H   0  0  0  0  0  0  0  0  0  0  0  0
    2.2782   -1.3309    0.1741 B   0  0  0  0  0  0  0  0  0  0  0  0
    3.0731   -2.3290    0.6978 O   0  0  0  0  0  0  0  0  0  0  0  0
    4.3723   -2.3006    0.0905 C   0  0  0  0  0  0  0  0  0  0  0  0
    5.3048   -1.6118    1.0926 C   0  0  0  0  0  0  0  0  0  0  0  0
    4.8949   -0.6373    1.3427 H   0  0  0  0  0  0  0  0  0  0  0  0
    5.3317   -2.2067    2.0022 H   0  0  0  0  0  0  0  0  0  0  0  0
    6.3127   -1.5176    0.7009 H   0  0  0  0  0  0  0  0  0  0  0  0
    4.8534   -3.7310   -0.1507 C   0  0  0  0  0  0  0  0  0  0  0  0
    4.9664   -4.2282    0.8091 H   0  0  0  0  0  0  0  0  0  0  0  0
    5.8140   -3.7213   -0.6578 H   0  0  0  0  0  0  0  0  0  0  0  0
    4.1384   -4.2959   -0.7394 H   0  0  0  0  0  0  0  0  0  0  0  0
    4.1290   -1.4520   -1.2070 C   0  0  0  0  0  0  0  0  0  0  0  0
    2.8921   -0.7779   -0.9227 O   0  0  0  0  0  0  0  0  0  0  0  0
    5.2080   -0.4124   -1.5038 C   0  0  0  0  0  0  0  0  0  0  0  0
    6.1745   -0.8944   -1.6206 H   0  0  0  0  0  0  0  0  0  0  0  0
    4.9594    0.1057   -2.4265 H   0  0  0  0  0  0  0  0  0  0  0  0
    5.2553    0.3206   -0.7062 H   0  0  0  0  0  0  0  0  0  0  0  0
    3.8982   -2.3094   -2.4586 C   0  0  0  0  0  0  0  0  0  0  0  0
    3.1022   -3.0273   -2.2808 H   0  0  0  0  0  0  0  0  0  0  0  0
    3.5859   -1.6589   -3.2720 H   0  0  0  0  0  0  0  0  0  0  0  0
    4.8062   -2.8285   -2.7495 H   0  0  0  0  0  0  0  0  0  0  0  0
   -3.3430   -3.8137   -2.7802 H   0  0  0  0  0  0  0  0  0  0  0  0
   -5.0693    1.7482    0.9424 H   0  0  0  0  0  0  0  0  0  0  0  0
    0.2359   -1.6814    2.9603 C   0  0  0  0  0  0  0  0  0  0  0  0
   -1.0372   -2.0490    3.3971 C   0  0  0  0  0  0  0  0  0  0  0  0
    1.1707   -1.5334    3.9892 C   0  0  0  0  0  0  0  0  0  0  0  0
   -1.3678   -2.1286    4.6811 N   0  0  0  0  0  0  0  0  0  0  0  0
   -1.8363   -2.2973    2.7074 H   0  0  0  0  0  0  0  0  0  0  0  0
    0.8532   -1.6135    5.2734 N   0  0  0  0  0  0  0  0  0  0  0  0
    2.2143   -1.3507    3.7669 H   0  0  0  0  0  0  0  0  0  0  0  0
   -0.4124   -1.8771    5.5567 C   0  0  0  0  0  0  0  0  0  0  0  0
   -0.6839   -1.9154    6.6044 H   0  0  0  0  0  0  0  0  0  0  0  0
  1  2  4  0  0  0  0
  2  3  4  0  0  0  0
  3  4  4  0  0  0  0
  4  5  4  0  0  0  0
  1  6  4  0  0  0  0
  5  6  4  0  0  0  0
  6  7  1  0  0  0  0
  5  8  1  0  0  0  0
  3  9  1  0  0  0  0
  2 10  1  0  0  0  0
 10 11  4  0  0  0  0
 11 12  4  0  0  0  0
 12 13  4  0  0  0  0
 13 14  4  0  0  0  0
 10 15  4  0  0  0  0
 14 15  4  0  0  0  0
 15 16  1  0  0  0  0
 13 17  1  0  0  0  0
 12 18  1  0  0  0  0
  1 19  1  0  0  0  0
 11 19  1  0  0  0  0
 19 20  1  0  0  0  0
 19 21  1  0  0  0  0
 21 22  1  0  0  0  0
 22 23  1  0  0  0  0
 23 24  1  0  0  0  0
 24 25  1  0  0  0  0
 24 26  1  0  0  0  0
 24 27  1  0  0  0  0
 23 28  1  0  0  0  0
 28 29  1  0  0  0  0
 28 30  1  0  0  0  0
 28 31  1  0  0  0  0
 23 32  1  0  0  0  0
 21 33  1  0  0  0  0
 32 33  1  0  0  0  0
 32 34  1  0  0  0  0
 34 35  1  0  0  0  0
 34 36  1  0  0  0  0
 34 37  1  0  0  0  0
 32 38  1  0  0  0  0
 38 39  1  0  0  0  0
 38 40  1  0  0  0  0
 38 41  1  0  0  0  0
 19 42  1  0  0  0  0
 42 43  1  0  0  0  0
 43 44  1  0  0  0  0
 44 45  1  0  0  0  0
 45 46  1  0  0  0  0
 45 47  1  0  0  0  0
 45 48  1  0  0  0  0
 44 49  1  0  0  0  0
 49 50  1  0  0  0  0
 49 51  1  0  0  0  0
 49 52  1  0  0  0  0
 44 53  1  0  0  0  0
 42 54  1  0  0  0  0
 53 54  1  0  0  0  0
 53 55  1  0  0  0  0
 55 56  1  0  0  0  0
 55 57  1  0  0  0  0
 55 58  1  0  0  0  0
 53 59  1  0  0  0  0
 59 60  1  0  0  0  0
 59 61  1  0  0  0  0
 59 62  1  0  0  0  0
 19 63  1  0  0  0  0
 63 64  1  0  0  0  0
 64 65  1  0  0  0  0
 65 66  1  0  0  0  0
 66 67  1  0  0  0  0
 66 68  1  0  0  0  0
 66 69  1  0  0  0  0
 65 70  1  0  0  0  0
 70 71  1  0  0  0  0
 70 72  1  0  0  0  0
 70 73  1  0  0  0  0
 65 74  1  0  0  0  0
 63 75  1  0  0  0  0
 74 75  1  0  0  0  0
 74 76  1  0  0  0  0
 76 77  1  0  0  0  0
 76 78  1  0  0  0  0
 76 79  1  0  0  0  0
 74 80  1  0  0  0  0
 80 81  1  0  0  0  0
 80 82  1  0  0  0  0
 80 83  1  0  0  0  0
  4 84  1  0  0  0  0
 14 85  1  0  0  0  0
 19 86  1  0  0  0  0
 20 86  1  0  0  0  0
 86 87  4  0  0  0  0
 86 88  4  0  0  0  0
 87 89  4  0  0  0  0
 87 90  1  0  0  0  0
 88 91  4  0  0  0  0
 88 92  1  0  0  0  0
 89 93  4  0  0  0  0
 91 93  4  0  0  0  0
 93 94  1  0  0  0  0
M  END
