
  xtb     01142213133D
 xtb: 6.4.1 (1a32961)
105113  0     0  0            999 V2000
   -0.8983   -1.9081   -0.5553 N   0  0  0  0  0  0  0  0  0  0  0  0
   -2.1031   -1.3307   -0.7378 C   0  0  0  0  0  0  0  0  0  0  0  0
   -2.8717   -1.6092   -1.8736 C   0  0  0  0  0  0  0  0  0  0  0  0
   -2.4024   -2.4951   -2.8186 C   0  0  0  0  0  0  0  0  0  0  0  0
   -1.1631   -3.0956   -2.6110 C   0  0  0  0  0  0  0  0  0  0  0  0
   -0.4573   -2.7630   -1.4741 C   0  0  0  0  0  0  0  0  0  0  0  0
    0.5113   -3.1991   -1.2745 H   0  0  0  0  0  0  0  0  0  0  0  0
   -0.7595   -3.7990   -3.3212 H   0  0  0  0  0  0  0  0  0  0  0  0
   -3.8197   -1.1198   -2.0268 H   0  0  0  0  0  0  0  0  0  0  0  0
   -2.5346   -0.3994    0.2968 C   0  0  0  0  0  0  0  0  0  0  0  0
   -1.6096   -0.0428    1.2138 N   0  0  0  0  0  0  0  0  0  0  0  0
   -1.9661    0.7910    2.1873 C   0  0  0  0  0  0  0  0  0  0  0  0
   -3.2330    1.3246    2.3092 C   0  0  0  0  0  0  0  0  0  0  0  0
   -4.1969    0.9713    1.3677 C   0  0  0  0  0  0  0  0  0  0  0  0
   -3.8406    0.1019    0.3593 C   0  0  0  0  0  0  0  0  0  0  0  0
   -4.5772   -0.2030   -0.3661 H   0  0  0  0  0  0  0  0  0  0  0  0
   -3.4662    1.9922    3.1229 H   0  0  0  0  0  0  0  0  0  0  0  0
   -1.1880    1.0383    2.8928 H   0  0  0  0  0  0  0  0  0  0  0  0
    0.4215   -0.8165    0.9133 Ir  0  0  0  0  0  0  0  0  0  0  0  0
    0.8726   -2.2303    1.5405 H   0  0  0  0  0  0  0  0  0  0  0  0
    0.4409    0.6835   -0.5595 B   0  0  0  0  0  0  0  0  0  0  0  0
   -0.3521    0.5457   -1.6878 O   0  0  0  0  0  0  0  0  0  0  0  0
   -0.3956    1.7772   -2.4140 C   0  0  0  0  0  0  0  0  0  0  0  0
   -0.3750    1.4934   -3.9138 C   0  0  0  0  0  0  0  0  0  0  0  0
    0.4622    0.8551   -4.1755 H   0  0  0  0  0  0  0  0  0  0  0  0
   -0.3117    2.4256   -4.4694 H   0  0  0  0  0  0  0  0  0  0  0  0
   -1.2930    0.9798   -4.1900 H   0  0  0  0  0  0  0  0  0  0  0  0
   -1.7197    2.4640   -2.0484 C   0  0  0  0  0  0  0  0  0  0  0  0
   -1.8447    3.3944   -2.5941 H   0  0  0  0  0  0  0  0  0  0  0  0
   -2.5395    1.7931   -2.2979 H   0  0  0  0  0  0  0  0  0  0  0  0
   -1.7558    2.6561   -0.9779 H   0  0  0  0  0  0  0  0  0  0  0  0
    0.8527    2.5397   -1.8632 C   0  0  0  0  0  0  0  0  0  0  0  0
    1.0567    1.9148   -0.5892 O   0  0  0  0  0  0  0  0  0  0  0  0
    2.1155    2.2768   -2.6925 C   0  0  0  0  0  0  0  0  0  0  0  0
    2.2814    1.2043   -2.7595 H   0  0  0  0  0  0  0  0  0  0  0  0
    2.0380    2.7143   -3.6837 H   0  0  0  0  0  0  0  0  0  0  0  0
    2.9685    2.7130   -2.1774 H   0  0  0  0  0  0  0  0  0  0  0  0
    0.6616    4.0450   -1.6843 C   0  0  0  0  0  0  0  0  0  0  0  0
   -0.0994    4.2579   -0.9396 H   0  0  0  0  0  0  0  0  0  0  0  0
    1.5973    4.4877   -1.3504 H   0  0  0  0  0  0  0  0  0  0  0  0
    0.3798    4.4995   -2.6307 H   0  0  0  0  0  0  0  0  0  0  0  0
    1.5099    0.7096    1.8248 B   0  0  0  0  0  0  0  0  0  0  0  0
    2.8680    0.8819    1.8764 O   0  0  0  0  0  0  0  0  0  0  0  0
    3.1953    2.1601    2.4384 C   0  0  0  0  0  0  0  0  0  0  0  0
    4.3381    1.9921    3.4405 C   0  0  0  0  0  0  0  0  0  0  0  0
    4.0871    1.2618    4.2023 H   0  0  0  0  0  0  0  0  0  0  0  0
    5.2195    1.6373    2.9123 H   0  0  0  0  0  0  0  0  0  0  0  0
    4.5695    2.9443    3.9098 H   0  0  0  0  0  0  0  0  0  0  0  0
    3.6690    3.0419    1.2766 C   0  0  0  0  0  0  0  0  0  0  0  0
    3.8869    4.0534    1.6055 H   0  0  0  0  0  0  0  0  0  0  0  0
    4.5725    2.6062    0.8558 H   0  0  0  0  0  0  0  0  0  0  0  0
    2.9053    3.0465    0.5042 H   0  0  0  0  0  0  0  0  0  0  0  0
    1.8326    2.6332    3.0632 C   0  0  0  0  0  0  0  0  0  0  0  0
    0.8768    1.7425    2.4744 O   0  0  0  0  0  0  0  0  0  0  0  0
    1.4371    4.0703    2.7224 C   0  0  0  0  0  0  0  0  0  0  0  0
    1.3278    4.1895    1.6497 H   0  0  0  0  0  0  0  0  0  0  0  0
    0.4803    4.2925    3.1887 H   0  0  0  0  0  0  0  0  0  0  0  0
    2.1803    4.7678    3.0985 H   0  0  0  0  0  0  0  0  0  0  0  0
    1.7558    2.4397    4.5830 C   0  0  0  0  0  0  0  0  0  0  0  0
    1.9339    1.3988    4.8375 H   0  0  0  0  0  0  0  0  0  0  0  0
    2.4704    3.0760    5.0956 H   0  0  0  0  0  0  0  0  0  0  0  0
    0.7533    2.6961    4.9181 H   0  0  0  0  0  0  0  0  0  0  0  0
    2.2782   -1.3309    0.1741 B   0  0  0  0  0  0  0  0  0  0  0  0
    3.2318   -2.0868    0.8195 O   0  0  0  0  0  0  0  0  0  0  0  0
    4.4632   -2.0718    0.0890 C   0  0  0  0  0  0  0  0  0  0  0  0
    5.3895   -1.0850    0.8079 C   0  0  0  0  0  0  0  0  0  0  0  0
    4.8870   -0.1256    0.8886 H   0  0  0  0  0  0  0  0  0  0  0  0
    5.5665   -1.4529    1.8154 H   0  0  0  0  0  0  0  0  0  0  0  0
    6.3406   -0.9819    0.2946 H   0  0  0  0  0  0  0  0  0  0  0  0
    5.0911   -3.4656    0.1210 C   0  0  0  0  0  0  0  0  0  0  0  0
    5.3418   -3.7110    1.1496 H   0  0  0  0  0  0  0  0  0  0  0  0
    5.9980   -3.4807   -0.4770 H   0  0  0  0  0  0  0  0  0  0  0  0
    4.4017   -4.2195   -0.2440 H   0  0  0  0  0  0  0  0  0  0  0  0
    4.0193   -1.5758   -1.3331 C   0  0  0  0  0  0  0  0  0  0  0  0
    2.7321   -0.9915   -1.0834 O   0  0  0  0  0  0  0  0  0  0  0  0
    4.9327   -0.5220   -1.9578 C   0  0  0  0  0  0  0  0  0  0  0  0
    5.9436   -0.9077   -2.0568 H   0  0  0  0  0  0  0  0  0  0  0  0
    4.5572   -0.2659   -2.9455 H   0  0  0  0  0  0  0  0  0  0  0  0
    4.9391    0.3791   -1.3541 H   0  0  0  0  0  0  0  0  0  0  0  0
    3.8151   -2.7180   -2.3380 C   0  0  0  0  0  0  0  0  0  0  0  0
    3.1394   -3.4638   -1.9287 H   0  0  0  0  0  0  0  0  0  0  0  0
    3.3625   -2.3111   -3.2390 H   0  0  0  0  0  0  0  0  0  0  0  0
    4.7615   -3.1832   -2.5965 H   0  0  0  0  0  0  0  0  0  0  0  0
   -2.9818   -2.7137   -3.7029 H   0  0  0  0  0  0  0  0  0  0  0  0
   -5.2015    1.3620    1.4294 H   0  0  0  0  0  0  0  0  0  0  0  0
    0.2359   -1.6814    2.9603 C   0  0  0  0  0  0  0  0  0  0  0  0
   -0.9683   -2.2308    3.3923 C   0  0  0  0  0  0  0  0  0  0  0  0
    1.2150   -1.3183    3.9050 C   0  0  0  0  0  0  0  0  0  0  0  0
   -1.1958   -2.2250    4.7681 C   0  0  0  0  0  0  0  0  0  0  0  0
   -1.9934   -2.8699    2.4989 C   0  0  0  0  0  0  0  0  0  0  0  0
    0.9954   -1.3394    5.2654 C   0  0  0  0  0  0  0  0  0  0  0  0
    2.1851   -1.0268    3.5344 H   0  0  0  0  0  0  0  0  0  0  0  0
   -0.2501   -1.7721    5.7103 C   0  0  0  0  0  0  0  0  0  0  0  0
   -2.2724   -2.6385    5.5201 N   0  0  0  0  0  0  0  0  0  0  0  0
   -1.6040   -2.9778    1.4918 H   0  0  0  0  0  0  0  0  0  0  0  0
   -2.9081   -2.2768    2.4572 H   0  0  0  0  0  0  0  0  0  0  0  0
   -2.2489   -3.8600    2.8788 H   0  0  0  0  0  0  0  0  0  0  0  0
    1.7601   -1.0554    5.9720 H   0  0  0  0  0  0  0  0  0  0  0  0
   -0.7619   -1.9081    6.9803 N   0  0  0  0  0  0  0  0  0  0  0  0
   -1.9512   -2.4177    6.8321 C   0  0  0  0  0  0  0  0  0  0  0  0
   -3.1366   -3.0167    5.1724 H   0  0  0  0  0  0  0  0  0  0  0  0
   -2.8888   -2.7411    7.9359 C   0  0  0  0  0  0  0  0  0  0  0  0
   -3.8084   -2.1663    7.8340 H   0  0  0  0  0  0  0  0  0  0  0  0
   -2.4167   -2.4964    8.8818 H   0  0  0  0  0  0  0  0  0  0  0  0
   -3.1395   -3.8010    7.9227 H   0  0  0  0  0  0  0  0  0  0  0  0
  1  2  4  0  0  0  0
  2  3  4  0  0  0  0
  3  4  4  0  0  0  0
  4  5  4  0  0  0  0
  1  6  4  0  0  0  0
  5  6  4  0  0  0  0
  6  7  1  0  0  0  0
  5  8  1  0  0  0  0
  3  9  1  0  0  0  0
  2 10  1  0  0  0  0
 10 11  4  0  0  0  0
 11 12  4  0  0  0  0
 12 13  4  0  0  0  0
 13 14  4  0  0  0  0
 10 15  4  0  0  0  0
 14 15  4  0  0  0  0
 15 16  1  0  0  0  0
 13 17  1  0  0  0  0
 12 18  1  0  0  0  0
  1 19  1  0  0  0  0
 11 19  1  0  0  0  0
 19 20  1  0  0  0  0
 19 21  1  0  0  0  0
 21 22  1  0  0  0  0
 22 23  1  0  0  0  0
 23 24  1  0  0  0  0
 24 25  1  0  0  0  0
 24 26  1  0  0  0  0
 24 27  1  0  0  0  0
 23 28  1  0  0  0  0
 28 29  1  0  0  0  0
 28 30  1  0  0  0  0
 28 31  1  0  0  0  0
 23 32  1  0  0  0  0
 21 33  1  0  0  0  0
 32 33  1  0  0  0  0
 32 34  1  0  0  0  0
 34 35  1  0  0  0  0
 34 36  1  0  0  0  0
 34 37  1  0  0  0  0
 32 38  1  0  0  0  0
 38 39  1  0  0  0  0
 38 40  1  0  0  0  0
 38 41  1  0  0  0  0
 19 42  1  0  0  0  0
 42 43  1  0  0  0  0
 43 44  1  0  0  0  0
 44 45  1  0  0  0  0
 45 46  1  0  0  0  0
 45 47  1  0  0  0  0
 45 48  1  0  0  0  0
 44 49  1  0  0  0  0
 49 50  1  0  0  0  0
 49 51  1  0  0  0  0
 49 52  1  0  0  0  0
 44 53  1  0  0  0  0
 42 54  1  0  0  0  0
 53 54  1  0  0  0  0
 53 55  1  0  0  0  0
 55 56  1  0  0  0  0
 55 57  1  0  0  0  0
 55 58  1  0  0  0  0
 53 59  1  0  0  0  0
 59 60  1  0  0  0  0
 59 61  1  0  0  0  0
 59 62  1  0  0  0  0
 19 63  1  0  0  0  0
 63 64  1  0  0  0  0
 64 65  1  0  0  0  0
 65 66  1  0  0  0  0
 66 67  1  0  0  0  0
 66 68  1  0  0  0  0
 66 69  1  0  0  0  0
 65 70  1  0  0  0  0
 70 71  1  0  0  0  0
 70 72  1  0  0  0  0
 70 73  1  0  0  0  0
 65 74  1  0  0  0  0
 63 75  1  0  0  0  0
 74 75  1  0  0  0  0
 74 76  1  0  0  0  0
 76 77  1  0  0  0  0
 76 78  1  0  0  0  0
 76 79  1  0  0  0  0
 74 80  1  0  0  0  0
 80 81  1  0  0  0  0
 80 82  1  0  0  0  0
 80 83  1  0  0  0  0
  4 84  1  0  0  0  0
 14 85  1  0  0  0  0
 19 86  1  0  0  0  0
 20 86  1  0  0  0  0
 86 87  4  0  0  0  0
 86 88  4  0  0  0  0
 87 89  4  0  0  0  0
 87 90  1  0  0  0  0
 88 91  2  0  0  0  0
 88 92  1  0  0  0  0
 89 93  4  0  0  0  0
 91 93  4  0  0  0  0
 89 94  1  0  0  0  0
 90 95  1  0  0  0  0
 90 96  1  0  0  0  0
 90 97  1  0  0  0  0
 91 98  1  0  0  0  0
 93 99  1  0  0  0  0
 94100  4  0  0  0  0
 99100  2  0  0  0  0
 94101  1  0  0  0  0
100102  1  0  0  0  0
102103  1  0  0  0  0
102104  1  0  0  0  0
102105  1  0  0  0  0
M  END
