
  xtb     01142215313D
 xtb: 6.4.1 (1a32961)
 17 17  0     0  0            999 V2000
   -0.3425   -0.5600   -0.0020 N   0  0  0  0  0  0  0  0  0  0  0  0
   -0.1110   -1.9784    0.0066 C   0  0  0  0  0  0  0  0  0  0  0  0
    0.6340    0.4059    0.0106 C   0  0  0  0  0  0  0  0  0  0  0  0
    1.9952    0.1180    0.0329 C   0  0  0  0  0  0  0  0  0  0  0  0
    3.1254   -0.1055    0.0526 N   0  0  0  0  0  0  0  0  0  0  0  0
    0.0138    1.6487   -0.0036 C   0  0  0  0  0  0  0  0  0  0  0  0
   -1.3615    1.4120   -0.0247 C   0  0  0  0  0  0  0  0  0  0  0  0
   -1.5547    0.0427   -0.0241 C   0  0  0  0  0  0  0  0  0  0  0  0
   -2.8210   -0.7334   -0.0446 C   0  0  0  0  0  0  0  0  0  0  0  0
    0.9611   -2.1652    0.0407 H   0  0  0  0  0  0  0  0  0  0  0  0
   -0.5236   -2.4375   -0.8940 H   0  0  0  0  0  0  0  0  0  0  0  0
   -0.5796   -2.4346    0.8807 H   0  0  0  0  0  0  0  0  0  0  0  0
    0.5130    2.5978    0.0013 H   0  0  0  0  0  0  0  0  0  0  0  0
   -2.1333    2.1560   -0.0401 H   0  0  0  0  0  0  0  0  0  0  0  0
   -3.6664   -0.0521   -0.0622 H   0  0  0  0  0  0  0  0  0  0  0  0
   -2.9014   -1.3683    0.8378 H   0  0  0  0  0  0  0  0  0  0  0  0
   -2.8688   -1.3736   -0.9255 H   0  0  0  0  0  0  0  0  0  0  0  0
  1  2  1  0  0  0  0
  1  3  1  0  0  0  0
  3  4  1  0  0  0  0
  4  5  3  0  0  0  0
  3  6  4  0  0  0  0
  6  7  4  0  0  0  0
  1  8  4  0  0  0  0
  7  8  4  0  0  0  0
  8  9  1  0  0  0  0
  2 10  1  0  0  0  0
  2 11  1  0  0  0  0
  2 12  1  0  0  0  0
  6 13  1  0  0  0  0
  7 14  1  0  0  0  0
  9 15  1  0  0  0  0
  9 16  1  0  0  0  0
  9 17  1  0  0  0  0
M  END
