   10

C         -1.53289       -1.16636        0.00000
C         -2.26355        0.00001       -0.00000
C         -1.53320        1.16643       -0.00000
N         -0.18794        1.20034        0.00000
C          0.42720        0.00039       -0.00000
C          1.86561        0.00031        0.00000
N          3.02937        0.00004        0.00000
N         -0.18764       -1.19979       -0.00000
H         -2.02410       -2.13581       -0.00000
H         -3.34457       -0.00017       -0.00000
