   10
Created with kallisto
C     -1.1210    0.7088    0.0092
N      0.0330    1.4122    0.0048
C     -1.1818   -0.6790    0.0052
C      1.1759    0.6862   -0.0021
C      0.0127   -1.3951   -0.0000
H     -2.1394   -1.1894    0.0061
C      1.2146   -0.6994   -0.0027
Cl     2.6114    1.6262   -0.0157
H      0.0153   -2.4802   -0.0023
F      2.3711   -1.3765   -0.0070
