
  xtb     01142215303D
 xtb: 6.4.1 (1a32961)
 95102  0     0  0            999 V2000
   -0.9055   -2.0512   -0.3426 N   0  0  0  0  0  0  0  0  0  0  0  0
   -2.1908   -1.6671   -0.4072 C   0  0  0  0  0  0  0  0  0  0  0  0
   -3.1081   -2.3614   -1.2058 C   0  0  0  0  0  0  0  0  0  0  0  0
   -2.6898   -3.4443   -1.9494 C   0  0  0  0  0  0  0  0  0  0  0  0
   -1.3522   -3.8211   -1.8817 C   0  0  0  0  0  0  0  0  0  0  0  0
   -0.5099   -3.0948   -1.0646 C   0  0  0  0  0  0  0  0  0  0  0  0
    0.5353   -3.3539   -0.9742 H   0  0  0  0  0  0  0  0  0  0  0  0
   -0.9796   -4.6608   -2.4456 H   0  0  0  0  0  0  0  0  0  0  0  0
   -4.1421   -2.0620   -1.2435 H   0  0  0  0  0  0  0  0  0  0  0  0
   -2.5631   -0.4998    0.3880 C   0  0  0  0  0  0  0  0  0  0  0  0
   -1.6025    0.0371    1.1633 N   0  0  0  0  0  0  0  0  0  0  0  0
   -1.8991    1.0972    1.9076 C   0  0  0  0  0  0  0  0  0  0  0  0
   -3.1468    1.6898    1.9283 C   0  0  0  0  0  0  0  0  0  0  0  0
   -4.1448    1.1600    1.1181 C   0  0  0  0  0  0  0  0  0  0  0  0
   -3.8449    0.0604    0.3416 C   0  0  0  0  0  0  0  0  0  0  0  0
   -4.6042   -0.3566   -0.2984 H   0  0  0  0  0  0  0  0  0  0  0  0
   -3.3344    2.5425    2.5607 H   0  0  0  0  0  0  0  0  0  0  0  0
   -1.0857    1.4866    2.5007 H   0  0  0  0  0  0  0  0  0  0  0  0
    0.4215   -0.8165    0.9133 Ir  0  0  0  0  0  0  0  0  0  0  0  0
    0.8726   -2.2303    1.5405 H   0  0  0  0  0  0  0  0  0  0  0  0
    0.4005    0.6047   -0.6101 B   0  0  0  0  0  0  0  0  0  0  0  0
   -0.2347    0.3226   -1.8036 O   0  0  0  0  0  0  0  0  0  0  0  0
   -0.2976    1.5013   -2.6158 C   0  0  0  0  0  0  0  0  0  0  0  0
   -0.0278    1.1355   -4.0731 C   0  0  0  0  0  0  0  0  0  0  0  0
    0.8887    0.5616   -4.1595 H   0  0  0  0  0  0  0  0  0  0  0  0
    0.0449    2.0358   -4.6776 H   0  0  0  0  0  0  0  0  0  0  0  0
   -0.8473    0.5265   -4.4468 H   0  0  0  0  0  0  0  0  0  0  0  0
   -1.7222    2.0585   -2.4859 C   0  0  0  0  0  0  0  0  0  0  0  0
   -1.8594    2.9349   -3.1122 H   0  0  0  0  0  0  0  0  0  0  0  0
   -2.4265    1.2884   -2.7938 H   0  0  0  0  0  0  0  0  0  0  0  0
   -1.9315    2.3107   -1.4482 H   0  0  0  0  0  0  0  0  0  0  0  0
    0.7774    2.4267   -1.9563 C   0  0  0  0  0  0  0  0  0  0  0  0
    0.8668    1.8981   -0.6249 O   0  0  0  0  0  0  0  0  0  0  0  0
    2.1649    2.2573   -2.5868 C   0  0  0  0  0  0  0  0  0  0  0  0
    2.4493    1.2089   -2.5409 H   0  0  0  0  0  0  0  0  0  0  0  0
    2.1833    2.6168   -3.6115 H   0  0  0  0  0  0  0  0  0  0  0  0
    2.8847    2.8222   -1.9993 H   0  0  0  0  0  0  0  0  0  0  0  0
    0.4134    3.9090   -1.9077 C   0  0  0  0  0  0  0  0  0  0  0  0
   -0.4731    4.0783   -1.3048 H   0  0  0  0  0  0  0  0  0  0  0  0
    1.2366    4.4627   -1.4628 H   0  0  0  0  0  0  0  0  0  0  0  0
    0.2441    4.2831   -2.9141 H   0  0  0  0  0  0  0  0  0  0  0  0
    1.5690    0.6312    1.8924 B   0  0  0  0  0  0  0  0  0  0  0  0
    2.9370    0.7578    1.9151 O   0  0  0  0  0  0  0  0  0  0  0  0
    3.3050    2.0297    2.4711 C   0  0  0  0  0  0  0  0  0  0  0  0
    4.5551    1.8783    3.3358 C   0  0  0  0  0  0  0  0  0  0  0  0
    4.4288    1.0951    4.0758 H   0  0  0  0  0  0  0  0  0  0  0  0
    5.3967    1.6119    2.7019 H   0  0  0  0  0  0  0  0  0  0  0  0
    4.7777    2.8174    3.8351 H   0  0  0  0  0  0  0  0  0  0  0  0
    3.6091    2.9495    1.2829 C   0  0  0  0  0  0  0  0  0  0  0  0
    3.8826    3.9481    1.6100 H   0  0  0  0  0  0  0  0  0  0  0  0
    4.4346    2.5230    0.7178 H   0  0  0  0  0  0  0  0  0  0  0  0
    2.7397    2.9820    0.6312 H   0  0  0  0  0  0  0  0  0  0  0  0
    2.0116    2.4510    3.2479 C   0  0  0  0  0  0  0  0  0  0  0  0
    0.9982    1.6417    2.6336 O   0  0  0  0  0  0  0  0  0  0  0  0
    1.6300    3.9236    3.1118 C   0  0  0  0  0  0  0  0  0  0  0  0
    1.4042    4.1646    2.0785 H   0  0  0  0  0  0  0  0  0  0  0  0
    0.7428    4.1180    3.7094 H   0  0  0  0  0  0  0  0  0  0  0  0
    2.4380    4.5560    3.4694 H   0  0  0  0  0  0  0  0  0  0  0  0
    2.0516    2.0728    4.7340 C   0  0  0  0  0  0  0  0  0  0  0  0
    2.2815    1.0165    4.8429 H   0  0  0  0  0  0  0  0  0  0  0  0
    2.7830    2.6698    5.2697 H   0  0  0  0  0  0  0  0  0  0  0  0
    1.0686    2.2478    5.1652 H   0  0  0  0  0  0  0  0  0  0  0  0
    2.2782   -1.3309    0.1741 B   0  0  0  0  0  0  0  0  0  0  0  0
    3.1019   -2.2824    0.7390 O   0  0  0  0  0  0  0  0  0  0  0  0
    4.3905   -2.2668    0.1092 C   0  0  0  0  0  0  0  0  0  0  0  0
    5.3321   -1.5246    1.0635 C   0  0  0  0  0  0  0  0  0  0  0  0
    4.9089   -0.5495    1.2863 H   0  0  0  0  0  0  0  0  0  0  0  0
    5.3913   -2.0852    1.9929 H   0  0  0  0  0  0  0  0  0  0  0  0
    6.3291   -1.4270    0.6455 H   0  0  0  0  0  0  0  0  0  0  0  0
    4.8835   -3.7020   -0.0749 C   0  0  0  0  0  0  0  0  0  0  0  0
    5.0169   -4.1538    0.9044 H   0  0  0  0  0  0  0  0  0  0  0  0
    5.8357   -3.7063   -0.5977 H   0  0  0  0  0  0  0  0  0  0  0  0
    4.1651   -4.3003   -0.6250 H   0  0  0  0  0  0  0  0  0  0  0  0
    4.1168   -1.4812   -1.2222 C   0  0  0  0  0  0  0  0  0  0  0  0
    2.8669   -0.8232   -0.9573 O   0  0  0  0  0  0  0  0  0  0  0  0
    5.1681   -0.4296   -1.5722 C   0  0  0  0  0  0  0  0  0  0  0  0
    6.1453   -0.8922   -1.6775 H   0  0  0  0  0  0  0  0  0  0  0  0
    4.8996    0.0423   -2.5138 H   0  0  0  0  0  0  0  0  0  0  0  0
    5.2031    0.3377   -0.8069 H   0  0  0  0  0  0  0  0  0  0  0  0
    3.8978   -2.3957   -2.4347 C   0  0  0  0  0  0  0  0  0  0  0  0
    3.1215   -3.1252   -2.2216 H   0  0  0  0  0  0  0  0  0  0  0  0
    3.5643   -1.7875   -3.2719 H   0  0  0  0  0  0  0  0  0  0  0  0
    4.8161   -2.9047   -2.7110 H   0  0  0  0  0  0  0  0  0  0  0  0
   -3.3872   -3.9867   -2.5694 H   0  0  0  0  0  0  0  0  0  0  0  0
   -5.1316    1.5973    1.0946 H   0  0  0  0  0  0  0  0  0  0  0  0
    0.2359   -1.6814    2.9603 C   0  0  0  0  0  0  0  0  0  0  0  0
   -1.0377   -1.9872    3.2072 N   0  0  0  0  0  0  0  0  0  0  0  0
    1.1670   -1.6008    4.0049 C   0  0  0  0  0  0  0  0  0  0  0  0
   -1.4520   -2.1300    4.4450 C   0  0  0  0  0  0  0  0  0  0  0  0
    0.7411   -1.7575    5.3086 C   0  0  0  0  0  0  0  0  0  0  0  0
    2.2024   -1.4156    3.7719 H   0  0  0  0  0  0  0  0  0  0  0  0
   -0.6061   -2.0142    5.5358 C   0  0  0  0  0  0  0  0  0  0  0  0
   -3.1340   -2.4861    4.6684 Cl  0  0  0  0  0  0  0  0  0  0  0  0
    1.4123   -1.6927    6.1514 H   0  0  0  0  0  0  0  0  0  0  0  0
   -1.0638   -2.1655    6.8041 F   0  0  0  0  0  0  0  0  0  0  0  0
  1  2  4  0  0  0  0
  2  3  4  0  0  0  0
  3  4  4  0  0  0  0
  4  5  4  0  0  0  0
  1  6  4  0  0  0  0
  5  6  4  0  0  0  0
  6  7  1  0  0  0  0
  5  8  1  0  0  0  0
  3  9  1  0  0  0  0
  2 10  1  0  0  0  0
 10 11  4  0  0  0  0
 11 12  4  0  0  0  0
 12 13  4  0  0  0  0
 13 14  4  0  0  0  0
 10 15  4  0  0  0  0
 14 15  4  0  0  0  0
 15 16  1  0  0  0  0
 13 17  1  0  0  0  0
 12 18  1  0  0  0  0
  1 19  1  0  0  0  0
 11 19  1  0  0  0  0
 19 20  1  0  0  0  0
 19 21  1  0  0  0  0
 21 22  1  0  0  0  0
 22 23  1  0  0  0  0
 23 24  1  0  0  0  0
 24 25  1  0  0  0  0
 24 26  1  0  0  0  0
 24 27  1  0  0  0  0
 23 28  1  0  0  0  0
 28 29  1  0  0  0  0
 28 30  1  0  0  0  0
 28 31  1  0  0  0  0
 23 32  1  0  0  0  0
 21 33  1  0  0  0  0
 32 33  1  0  0  0  0
 32 34  1  0  0  0  0
 34 35  1  0  0  0  0
 34 36  1  0  0  0  0
 34 37  1  0  0  0  0
 32 38  1  0  0  0  0
 38 39  1  0  0  0  0
 38 40  1  0  0  0  0
 38 41  1  0  0  0  0
 19 42  1  0  0  0  0
 42 43  1  0  0  0  0
 43 44  1  0  0  0  0
 44 45  1  0  0  0  0
 45 46  1  0  0  0  0
 45 47  1  0  0  0  0
 45 48  1  0  0  0  0
 44 49  1  0  0  0  0
 49 50  1  0  0  0  0
 49 51  1  0  0  0  0
 49 52  1  0  0  0  0
 44 53  1  0  0  0  0
 42 54  1  0  0  0  0
 53 54  1  0  0  0  0
 53 55  1  0  0  0  0
 55 56  1  0  0  0  0
 55 57  1  0  0  0  0
 55 58  1  0  0  0  0
 53 59  1  0  0  0  0
 59 60  1  0  0  0  0
 59 61  1  0  0  0  0
 59 62  1  0  0  0  0
 19 63  1  0  0  0  0
 63 64  1  0  0  0  0
 64 65  1  0  0  0  0
 65 66  1  0  0  0  0
 66 67  1  0  0  0  0
 66 68  1  0  0  0  0
 66 69  1  0  0  0  0
 65 70  1  0  0  0  0
 70 71  1  0  0  0  0
 70 72  1  0  0  0  0
 70 73  1  0  0  0  0
 65 74  1  0  0  0  0
 63 75  1  0  0  0  0
 74 75  1  0  0  0  0
 74 76  1  0  0  0  0
 76 77  1  0  0  0  0
 76 78  1  0  0  0  0
 76 79  1  0  0  0  0
 74 80  1  0  0  0  0
 80 81  1  0  0  0  0
 80 82  1  0  0  0  0
 80 83  1  0  0  0  0
  4 84  1  0  0  0  0
 14 85  1  0  0  0  0
 19 86  1  0  0  0  0
 20 86  1  0  0  0  0
 86 87  4  0  0  0  0
 86 88  4  0  0  0  0
 87 89  4  0  0  0  0
 88 90  4  0  0  0  0
 88 91  1  0  0  0  0
 89 92  4  0  0  0  0
 90 92  4  0  0  0  0
 89 93  1  0  0  0  0
 90 94  1  0  0  0  0
 92 95  1  0  0  0  0
M  END
