
  xtb     01142214173D
 xtb: 6.4.1 (1a32961)
100108  0     0  0            999 V2000
   -0.8287   -1.9907   -0.4852 N   0  0  0  0  0  0  0  0  0  0  0  0
   -2.0861   -1.5404   -0.6634 C   0  0  0  0  0  0  0  0  0  0  0  0
   -2.9179   -2.0997   -1.6425 C   0  0  0  0  0  0  0  0  0  0  0  0
   -2.4514   -3.1184   -2.4430 C   0  0  0  0  0  0  0  0  0  0  0  0
   -1.1465   -3.5674   -2.2530 C   0  0  0  0  0  0  0  0  0  0  0  0
   -0.3874   -2.9718   -1.2683 C   0  0  0  0  0  0  0  0  0  0  0  0
    0.6300   -3.2872   -1.0908 H   0  0  0  0  0  0  0  0  0  0  0  0
   -0.7374   -4.3618   -2.8558 H   0  0  0  0  0  0  0  0  0  0  0  0
   -3.9244   -1.7400   -1.7785 H   0  0  0  0  0  0  0  0  0  0  0  0
   -2.5166   -0.4564    0.2088 C   0  0  0  0  0  0  0  0  0  0  0  0
   -1.6215   -0.0202    1.1203 N   0  0  0  0  0  0  0  0  0  0  0  0
   -1.9868    0.9484    1.9568 C   0  0  0  0  0  0  0  0  0  0  0  0
   -3.2271    1.5522    1.9335 C   0  0  0  0  0  0  0  0  0  0  0  0
   -4.1515    1.1332    0.9803 C   0  0  0  0  0  0  0  0  0  0  0  0
   -3.7895    0.1219    0.1181 C   0  0  0  0  0  0  0  0  0  0  0  0
   -4.4936   -0.2170   -0.6237 H   0  0  0  0  0  0  0  0  0  0  0  0
   -3.4689    2.3281    2.6418 H   0  0  0  0  0  0  0  0  0  0  0  0
   -1.2359    1.2480    2.6710 H   0  0  0  0  0  0  0  0  0  0  0  0
    0.4215   -0.8165    0.9133 Ir  0  0  0  0  0  0  0  0  0  0  0  0
    0.8726   -2.2303    1.5405 H   0  0  0  0  0  0  0  0  0  0  0  0
    0.4829    0.6726   -0.5579 B   0  0  0  0  0  0  0  0  0  0  0  0
   -0.3838    0.6096   -1.6358 O   0  0  0  0  0  0  0  0  0  0  0  0
   -0.3485    1.8386   -2.3669 C   0  0  0  0  0  0  0  0  0  0  0  0
   -0.4287    1.5544   -3.8650 C   0  0  0  0  0  0  0  0  0  0  0  0
    0.3200    0.8270   -4.1615 H   0  0  0  0  0  0  0  0  0  0  0  0
   -0.2871    2.4740   -4.4271 H   0  0  0  0  0  0  0  0  0  0  0  0
   -1.4095    1.1475   -4.0995 H   0  0  0  0  0  0  0  0  0  0  0  0
   -1.5822    2.6464   -1.9380 C   0  0  0  0  0  0  0  0  0  0  0  0
   -1.6511    3.5822   -2.4848 H   0  0  0  0  0  0  0  0  0  0  0  0
   -2.4726    2.0526   -2.1364 H   0  0  0  0  0  0  0  0  0  0  0  0
   -1.5442    2.8450   -0.8688 H   0  0  0  0  0  0  0  0  0  0  0  0
    0.9935    2.4840   -1.8878 C   0  0  0  0  0  0  0  0  0  0  0  0
    1.2195    1.8333   -0.6308 O   0  0  0  0  0  0  0  0  0  0  0  0
    2.1800    2.1240   -2.7906 C   0  0  0  0  0  0  0  0  0  0  0  0
    2.2459    1.0430   -2.8872 H   0  0  0  0  0  0  0  0  0  0  0  0
    2.0892    2.5866   -3.7691 H   0  0  0  0  0  0  0  0  0  0  0  0
    3.0937    2.4752   -2.3158 H   0  0  0  0  0  0  0  0  0  0  0  0
    0.9467    3.9980   -1.6888 C   0  0  0  0  0  0  0  0  0  0  0  0
    0.2499    4.2671   -0.9009 H   0  0  0  0  0  0  0  0  0  0  0  0
    1.9349    4.3512   -1.4034 H   0  0  0  0  0  0  0  0  0  0  0  0
    0.6546    4.4881   -2.6141 H   0  0  0  0  0  0  0  0  0  0  0  0
    1.4614    0.6831    1.9362 B   0  0  0  0  0  0  0  0  0  0  0  0
    2.8226    0.8171    2.0576 O   0  0  0  0  0  0  0  0  0  0  0  0
    3.1544    2.0703    2.6665 C   0  0  0  0  0  0  0  0  0  0  0  0
    4.2871    1.8648    3.6712 C   0  0  0  0  0  0  0  0  0  0  0  0
    4.0285    1.1034    4.3991 H   0  0  0  0  0  0  0  0  0  0  0  0
    5.1753    1.5393    3.1361 H   0  0  0  0  0  0  0  0  0  0  0  0
    4.5079    2.7980    4.1824 H   0  0  0  0  0  0  0  0  0  0  0  0
    3.6351    2.9932    1.5396 C   0  0  0  0  0  0  0  0  0  0  0  0
    3.8631    3.9891    1.9070 H   0  0  0  0  0  0  0  0  0  0  0  0
    4.5340    2.5648    1.1025 H   0  0  0  0  0  0  0  0  0  0  0  0
    2.8721    3.0359    0.7668 H   0  0  0  0  0  0  0  0  0  0  0  0
    1.7906    2.5233    3.2938 C   0  0  0  0  0  0  0  0  0  0  0  0
    0.8338    1.7172    2.5944 O   0  0  0  0  0  0  0  0  0  0  0  0
    1.4480    3.9982    3.0881 C   0  0  0  0  0  0  0  0  0  0  0  0
    1.3634    4.2278    2.0310 H   0  0  0  0  0  0  0  0  0  0  0  0
    0.4923    4.2107    3.5610 H   0  0  0  0  0  0  0  0  0  0  0  0
    2.2096    4.6275    3.5405 H   0  0  0  0  0  0  0  0  0  0  0  0
    1.6657    2.1793    4.7838 C   0  0  0  0  0  0  0  0  0  0  0  0
    1.8395    1.1182    4.9410 H   0  0  0  0  0  0  0  0  0  0  0  0
    2.3618    2.7613    5.3799 H   0  0  0  0  0  0  0  0  0  0  0  0
    0.6521    2.4017    5.1096 H   0  0  0  0  0  0  0  0  0  0  0  0
    2.2782   -1.3309    0.1741 B   0  0  0  0  0  0  0  0  0  0  0  0
    3.3573   -1.7852    0.9072 O   0  0  0  0  0  0  0  0  0  0  0  0
    4.5170   -1.8878    0.0705 C   0  0  0  0  0  0  0  0  0  0  0  0
    5.3558   -0.6309    0.3209 C   0  0  0  0  0  0  0  0  0  0  0  0
    4.7520    0.2477    0.1113 H   0  0  0  0  0  0  0  0  0  0  0  0
    5.6274   -0.6035    1.3730 H   0  0  0  0  0  0  0  0  0  0  0  0
    6.2590   -0.6288   -0.2817 H   0  0  0  0  0  0  0  0  0  0  0  0
    5.3224   -3.1259    0.4608 C   0  0  0  0  0  0  0  0  0  0  0  0
    5.7315   -2.9823    1.4570 H   0  0  0  0  0  0  0  0  0  0  0  0
    6.1417   -3.2733   -0.2373 H   0  0  0  0  0  0  0  0  0  0  0  0
    4.6966   -4.0117    0.4790 H   0  0  0  0  0  0  0  0  0  0  0  0
    3.8954   -1.9267   -1.3672 C   0  0  0  0  0  0  0  0  0  0  0  0
    2.5973   -1.3449   -1.1671 O   0  0  0  0  0  0  0  0  0  0  0  0
    4.6581   -1.1247   -2.4194 C   0  0  0  0  0  0  0  0  0  0  0  0
    5.6762   -1.4945   -2.5064 H   0  0  0  0  0  0  0  0  0  0  0  0
    4.1615   -1.2352   -3.3803 H   0  0  0  0  0  0  0  0  0  0  0  0
    4.6730   -0.0708   -2.1641 H   0  0  0  0  0  0  0  0  0  0  0  0
    3.6769   -3.3542   -1.8871 C   0  0  0  0  0  0  0  0  0  0  0  0
    3.1330   -3.9430   -1.1530 H   0  0  0  0  0  0  0  0  0  0  0  0
    3.0791   -3.3038   -2.7941 H   0  0  0  0  0  0  0  0  0  0  0  0
    4.6230   -3.8362   -2.1135 H   0  0  0  0  0  0  0  0  0  0  0  0
   -3.0838   -3.5559   -3.2006 H   0  0  0  0  0  0  0  0  0  0  0  0
   -5.1299    1.5856    0.9183 H   0  0  0  0  0  0  0  0  0  0  0  0
    0.2359   -1.6814    2.9603 C   0  0  0  0  0  0  0  0  0  0  0  0
   -1.0375   -1.9546    3.4269 C   0  0  0  0  0  0  0  0  0  0  0  0
    1.2478   -1.6635    3.9248 C   0  0  0  0  0  0  0  0  0  0  0  0
   -1.3136   -2.0878    4.7954 C   0  0  0  0  0  0  0  0  0  0  0  0
   -1.8633   -2.0697    2.7385 H   0  0  0  0  0  0  0  0  0  0  0  0
    2.5954   -1.5491    3.7659 N   0  0  0  0  0  0  0  0  0  0  0  0
    0.9882   -1.8036    5.3143 C   0  0  0  0  0  0  0  0  0  0  0  0
   -0.3253   -2.0037    5.7471 C   0  0  0  0  0  0  0  0  0  0  0  0
   -2.3364   -2.2702    5.0985 H   0  0  0  0  0  0  0  0  0  0  0  0
    3.1905   -1.5886    4.9886 C   0  0  0  0  0  0  0  0  0  0  0  0
    3.0371   -1.4129    2.8659 H   0  0  0  0  0  0  0  0  0  0  0  0
    2.2499   -1.7418    5.9667 C   0  0  0  0  0  0  0  0  0  0  0  0
   -0.5501   -2.1117    6.7988 H   0  0  0  0  0  0  0  0  0  0  0  0
    4.2573   -1.5169    5.0861 H   0  0  0  0  0  0  0  0  0  0  0  0
    2.4245   -1.8121    7.0229 H   0  0  0  0  0  0  0  0  0  0  0  0
  1  2  4  0  0  0  0
  2  3  4  0  0  0  0
  3  4  4  0  0  0  0
  4  5  4  0  0  0  0
  1  6  4  0  0  0  0
  5  6  4  0  0  0  0
  6  7  1  0  0  0  0
  5  8  1  0  0  0  0
  3  9  1  0  0  0  0
  2 10  1  0  0  0  0
 10 11  4  0  0  0  0
 11 12  4  0  0  0  0
 12 13  4  0  0  0  0
 13 14  4  0  0  0  0
 10 15  4  0  0  0  0
 14 15  4  0  0  0  0
 15 16  1  0  0  0  0
 13 17  1  0  0  0  0
 12 18  1  0  0  0  0
  1 19  1  0  0  0  0
 11 19  1  0  0  0  0
 19 20  1  0  0  0  0
 19 21  1  0  0  0  0
 21 22  1  0  0  0  0
 22 23  1  0  0  0  0
 23 24  1  0  0  0  0
 24 25  1  0  0  0  0
 24 26  1  0  0  0  0
 24 27  1  0  0  0  0
 23 28  1  0  0  0  0
 28 29  1  0  0  0  0
 28 30  1  0  0  0  0
 28 31  1  0  0  0  0
 23 32  1  0  0  0  0
 21 33  1  0  0  0  0
 32 33  1  0  0  0  0
 32 34  1  0  0  0  0
 34 35  1  0  0  0  0
 34 36  1  0  0  0  0
 34 37  1  0  0  0  0
 32 38  1  0  0  0  0
 38 39  1  0  0  0  0
 38 40  1  0  0  0  0
 38 41  1  0  0  0  0
 19 42  1  0  0  0  0
 42 43  1  0  0  0  0
 43 44  1  0  0  0  0
 44 45  1  0  0  0  0
 45 46  1  0  0  0  0
 45 47  1  0  0  0  0
 45 48  1  0  0  0  0
 44 49  1  0  0  0  0
 49 50  1  0  0  0  0
 49 51  1  0  0  0  0
 49 52  1  0  0  0  0
 44 53  1  0  0  0  0
 42 54  1  0  0  0  0
 53 54  1  0  0  0  0
 53 55  1  0  0  0  0
 55 56  1  0  0  0  0
 55 57  1  0  0  0  0
 55 58  1  0  0  0  0
 53 59  1  0  0  0  0
 59 60  1  0  0  0  0
 59 61  1  0  0  0  0
 59 62  1  0  0  0  0
 19 63  1  0  0  0  0
 63 64  1  0  0  0  0
 64 65  1  0  0  0  0
 65 66  1  0  0  0  0
 66 67  1  0  0  0  0
 66 68  1  0  0  0  0
 66 69  1  0  0  0  0
 65 70  1  0  0  0  0
 70 71  1  0  0  0  0
 70 72  1  0  0  0  0
 70 73  1  0  0  0  0
 65 74  1  0  0  0  0
 63 75  1  0  0  0  0
 74 75  1  0  0  0  0
 74 76  1  0  0  0  0
 76 77  1  0  0  0  0
 76 78  1  0  0  0  0
 76 79  1  0  0  0  0
 74 80  1  0  0  0  0
 80 81  1  0  0  0  0
 80 82  1  0  0  0  0
 80 83  1  0  0  0  0
  4 84  1  0  0  0  0
 14 85  1  0  0  0  0
 19 86  1  0  0  0  0
 20 86  1  0  0  0  0
 86 87  4  0  0  0  0
 86 88  4  0  0  0  0
 87 89  4  0  0  0  0
 87 90  1  0  0  0  0
 88 91  1  0  0  0  0
 88 92  4  0  0  0  0
 89 93  2  0  0  0  0
 92 93  4  0  0  0  0
 89 94  1  0  0  0  0
 91 95  4  0  0  0  0
 91 96  1  0  0  0  0
 92 97  4  0  0  0  0
 95 97  2  0  0  0  0
 93 98  1  0  0  0  0
 95 99  1  0  0  0  0
 97100  1  0  0  0  0
M  END
