   11
Created with kallisto
C      1.6830   -1.9118   -0.0004
C      2.6400   -0.8973   -0.0001
C      0.3248   -1.5852   -0.0006
C      2.2310    0.4330   -0.0029
H      3.6997   -1.1332    0.0025
C     -0.0676   -0.2450   -0.0037
H     -0.4175   -2.3797    0.0022
F      3.1539    1.4039   -0.0012
C      0.8834    0.7722   -0.0062
Br    -1.9069    0.1923   -0.0033
H      0.5969    1.8183   -0.0097
