
  xtb     01142215063D
 xtb: 6.4.1 (1a32961)
 99106  0     0  0            999 V2000
   -0.9217   -2.0470   -0.3412 N   0  0  0  0  0  0  0  0  0  0  0  0
   -2.1825   -1.5986   -0.4999 C   0  0  0  0  0  0  0  0  0  0  0  0
   -3.0929   -2.2847   -1.3164 C   0  0  0  0  0  0  0  0  0  0  0  0
   -2.6925   -3.4145   -1.9932 C   0  0  0  0  0  0  0  0  0  0  0  0
   -1.3774   -3.8510   -1.8401 C   0  0  0  0  0  0  0  0  0  0  0  0
   -0.5456   -3.1381   -1.0035 C   0  0  0  0  0  0  0  0  0  0  0  0
    0.4772   -3.4488   -0.8429 H   0  0  0  0  0  0  0  0  0  0  0  0
   -1.0186   -4.7279   -2.3541 H   0  0  0  0  0  0  0  0  0  0  0  0
   -4.1092   -1.9391   -1.4128 H   0  0  0  0  0  0  0  0  0  0  0  0
   -2.5294   -0.3776    0.2112 C   0  0  0  0  0  0  0  0  0  0  0  0
   -1.6001    0.1094    1.0629 N   0  0  0  0  0  0  0  0  0  0  0  0
   -1.8808    1.2201    1.7422 C   0  0  0  0  0  0  0  0  0  0  0  0
   -3.0661    1.9130    1.6155 C   0  0  0  0  0  0  0  0  0  0  0  0
   -4.0223    1.4396    0.7187 C   0  0  0  0  0  0  0  0  0  0  0  0
   -3.7453    0.2898    0.0129 C   0  0  0  0  0  0  0  0  0  0  0  0
   -4.4654   -0.0841   -0.6962 H   0  0  0  0  0  0  0  0  0  0  0  0
   -3.2440    2.8008    2.2009 H   0  0  0  0  0  0  0  0  0  0  0  0
   -1.1039    1.5560    2.4114 H   0  0  0  0  0  0  0  0  0  0  0  0
    0.4215   -0.8165    0.9133 Ir  0  0  0  0  0  0  0  0  0  0  0  0
    0.8726   -2.2303    1.5405 H   0  0  0  0  0  0  0  0  0  0  0  0
    0.3794    0.6176   -0.6054 B   0  0  0  0  0  0  0  0  0  0  0  0
   -0.2128    0.2979   -1.8129 O   0  0  0  0  0  0  0  0  0  0  0  0
   -0.3048    1.4617   -2.6411 C   0  0  0  0  0  0  0  0  0  0  0  0
    0.0294    1.0898   -4.0837 C   0  0  0  0  0  0  0  0  0  0  0  0
    0.9748    0.5598   -4.1323 H   0  0  0  0  0  0  0  0  0  0  0  0
    0.0773    1.9837   -4.7003 H   0  0  0  0  0  0  0  0  0  0  0  0
   -0.7475    0.4356   -4.4725 H   0  0  0  0  0  0  0  0  0  0  0  0
   -1.7568    1.9561   -2.5710 C   0  0  0  0  0  0  0  0  0  0  0  0
   -1.9107    2.8122   -3.2213 H   0  0  0  0  0  0  0  0  0  0  0  0
   -2.4158    1.1489   -2.8853 H   0  0  0  0  0  0  0  0  0  0  0  0
   -2.0143    2.2218   -1.5477 H   0  0  0  0  0  0  0  0  0  0  0  0
    0.7025    2.4454   -1.9598 C   0  0  0  0  0  0  0  0  0  0  0  0
    0.7757    1.9368   -0.6211 O   0  0  0  0  0  0  0  0  0  0  0  0
    2.1138    2.3383   -2.5504 C   0  0  0  0  0  0  0  0  0  0  0  0
    2.4495    1.3065   -2.4800 H   0  0  0  0  0  0  0  0  0  0  0  0
    2.1409    2.6824   -3.5803 H   0  0  0  0  0  0  0  0  0  0  0  0
    2.7886    2.9489   -1.9553 H   0  0  0  0  0  0  0  0  0  0  0  0
    0.2662    3.9091   -1.9404 C   0  0  0  0  0  0  0  0  0  0  0  0
   -0.6456    4.0422   -1.3662 H   0  0  0  0  0  0  0  0  0  0  0  0
    1.0477    4.5075   -1.4781 H   0  0  0  0  0  0  0  0  0  0  0  0
    0.1095    4.2635   -2.9561 H   0  0  0  0  0  0  0  0  0  0  0  0
    1.5472    0.6793    1.8403 B   0  0  0  0  0  0  0  0  0  0  0  0
    2.9026    0.9134    1.7448 O   0  0  0  0  0  0  0  0  0  0  0  0
    3.2377    2.1704    2.3488 C   0  0  0  0  0  0  0  0  0  0  0  0
    4.5473    2.0357    3.1255 C   0  0  0  0  0  0  0  0  0  0  0  0
    4.4986    1.2187    3.8374 H   0  0  0  0  0  0  0  0  0  0  0  0
    5.3538    1.8286    2.4268 H   0  0  0  0  0  0  0  0  0  0  0  0
    4.7678    2.9622    3.6486 H   0  0  0  0  0  0  0  0  0  0  0  0
    3.4269    3.1695    1.2016 C   0  0  0  0  0  0  0  0  0  0  0  0
    3.6663    4.1624    1.5705 H   0  0  0  0  0  0  0  0  0  0  0  0
    4.2408    2.8194    0.5706 H   0  0  0  0  0  0  0  0  0  0  0  0
    2.5225    3.1914    0.5995 H   0  0  0  0  0  0  0  0  0  0  0  0
    1.9777    2.4785    3.2291 C   0  0  0  0  0  0  0  0  0  0  0  0
    0.9760    1.6249    2.6614 O   0  0  0  0  0  0  0  0  0  0  0  0
    1.4947    3.9272    3.1720 C   0  0  0  0  0  0  0  0  0  0  0  0
    1.1916    4.1916    2.1643 H   0  0  0  0  0  0  0  0  0  0  0  0
    0.6348    4.0402    3.8277 H   0  0  0  0  0  0  0  0  0  0  0  0
    2.2803    4.5990    3.5071 H   0  0  0  0  0  0  0  0  0  0  0  0
    2.1457    2.0617    4.6959 C   0  0  0  0  0  0  0  0  0  0  0  0
    2.4310    1.0157    4.7563 H   0  0  0  0  0  0  0  0  0  0  0  0
    2.8845    2.6802    5.1960 H   0  0  0  0  0  0  0  0  0  0  0  0
    1.1892    2.1746    5.2008 H   0  0  0  0  0  0  0  0  0  0  0  0
    2.2782   -1.3309    0.1741 B   0  0  0  0  0  0  0  0  0  0  0  0
    3.1329   -2.2925    0.6716 O   0  0  0  0  0  0  0  0  0  0  0  0
    4.3951   -2.2273   -0.0043 C   0  0  0  0  0  0  0  0  0  0  0  0
    5.3381   -1.4331    0.9061 C   0  0  0  0  0  0  0  0  0  0  0  0
    4.8970   -0.4607    1.1064 H   0  0  0  0  0  0  0  0  0  0  0  0
    5.4310   -1.9615    1.8513 H   0  0  0  0  0  0  0  0  0  0  0  0
    6.3224   -1.3243    0.4615 H   0  0  0  0  0  0  0  0  0  0  0  0
    4.9454   -3.6384   -0.2044 C   0  0  0  0  0  0  0  0  0  0  0  0
    5.1685   -4.0705    0.7674 H   0  0  0  0  0  0  0  0  0  0  0  0
    5.8589   -3.6025   -0.7913 H   0  0  0  0  0  0  0  0  0  0  0  0
    4.2220   -4.2777   -0.6993 H   0  0  0  0  0  0  0  0  0  0  0  0
    4.0371   -1.4595   -1.3226 C   0  0  0  0  0  0  0  0  0  0  0  0
    2.8127   -0.7944   -0.9764 O   0  0  0  0  0  0  0  0  0  0  0  0
    5.0707   -0.4246   -1.7622 C   0  0  0  0  0  0  0  0  0  0  0  0
    6.0402   -0.8954   -1.9003 H   0  0  0  0  0  0  0  0  0  0  0  0
    4.7577    0.0161   -2.7053 H   0  0  0  0  0  0  0  0  0  0  0  0
    5.1476    0.3683   -1.0263 H   0  0  0  0  0  0  0  0  0  0  0  0
    3.7277   -2.3965   -2.4983 C   0  0  0  0  0  0  0  0  0  0  0  0
    2.9789   -3.1281   -2.2071 H   0  0  0  0  0  0  0  0  0  0  0  0
    3.3182   -1.8066   -3.3148 H   0  0  0  0  0  0  0  0  0  0  0  0
    4.6248   -2.9027   -2.8418 H   0  0  0  0  0  0  0  0  0  0  0  0
   -3.3831   -3.9502   -2.6267 H   0  0  0  0  0  0  0  0  0  0  0  0
   -4.9570    1.9613    0.5774 H   0  0  0  0  0  0  0  0  0  0  0  0
    0.2359   -1.6814    2.9603 C   0  0  0  0  0  0  0  0  0  0  0  0
   -1.1082   -1.8779    3.2688 C   0  0  0  0  0  0  0  0  0  0  0  0
    1.1658   -1.7171    4.0074 C   0  0  0  0  0  0  0  0  0  0  0  0
   -1.5508   -1.9460    4.5806 C   0  0  0  0  0  0  0  0  0  0  0  0
   -1.8427   -1.9892    2.4833 H   0  0  0  0  0  0  0  0  0  0  0  0
    0.7093   -1.7790    5.3194 C   0  0  0  0  0  0  0  0  0  0  0  0
    2.6409   -1.7636    3.7515 C   0  0  0  0  0  0  0  0  0  0  0  0
   -0.6396   -1.8666    5.6166 C   0  0  0  0  0  0  0  0  0  0  0  0
   -2.6053   -2.0703    4.7871 H   0  0  0  0  0  0  0  0  0  0  0  0
    1.4282   -1.7778    6.1280 H   0  0  0  0  0  0  0  0  0  0  0  0
    2.8846   -2.6739    3.2073 H   0  0  0  0  0  0  0  0  0  0  0  0
    3.1979   -1.7498    4.6863 H   0  0  0  0  0  0  0  0  0  0  0  0
    2.9500   -0.9380    3.1195 H   0  0  0  0  0  0  0  0  0  0  0  0
   -0.9704   -1.9066    6.6448 H   0  0  0  0  0  0  0  0  0  0  0  0
  1  2  4  0  0  0  0
  2  3  4  0  0  0  0
  3  4  4  0  0  0  0
  4  5  4  0  0  0  0
  1  6  4  0  0  0  0
  5  6  4  0  0  0  0
  6  7  1  0  0  0  0
  5  8  1  0  0  0  0
  3  9  1  0  0  0  0
  2 10  1  0  0  0  0
 10 11  4  0  0  0  0
 11 12  4  0  0  0  0
 12 13  4  0  0  0  0
 13 14  4  0  0  0  0
 10 15  4  0  0  0  0
 14 15  4  0  0  0  0
 15 16  1  0  0  0  0
 13 17  1  0  0  0  0
 12 18  1  0  0  0  0
  1 19  1  0  0  0  0
 11 19  1  0  0  0  0
 19 20  1  0  0  0  0
 19 21  1  0  0  0  0
 21 22  1  0  0  0  0
 22 23  1  0  0  0  0
 23 24  1  0  0  0  0
 24 25  1  0  0  0  0
 24 26  1  0  0  0  0
 24 27  1  0  0  0  0
 23 28  1  0  0  0  0
 28 29  1  0  0  0  0
 28 30  1  0  0  0  0
 28 31  1  0  0  0  0
 23 32  1  0  0  0  0
 21 33  1  0  0  0  0
 32 33  1  0  0  0  0
 32 34  1  0  0  0  0
 34 35  1  0  0  0  0
 34 36  1  0  0  0  0
 34 37  1  0  0  0  0
 32 38  1  0  0  0  0
 38 39  1  0  0  0  0
 38 40  1  0  0  0  0
 38 41  1  0  0  0  0
 19 42  1  0  0  0  0
 42 43  1  0  0  0  0
 43 44  1  0  0  0  0
 44 45  1  0  0  0  0
 45 46  1  0  0  0  0
 45 47  1  0  0  0  0
 45 48  1  0  0  0  0
 44 49  1  0  0  0  0
 49 50  1  0  0  0  0
 49 51  1  0  0  0  0
 49 52  1  0  0  0  0
 44 53  1  0  0  0  0
 42 54  1  0  0  0  0
 53 54  1  0  0  0  0
 53 55  1  0  0  0  0
 55 56  1  0  0  0  0
 55 57  1  0  0  0  0
 55 58  1  0  0  0  0
 53 59  1  0  0  0  0
 59 60  1  0  0  0  0
 59 61  1  0  0  0  0
 59 62  1  0  0  0  0
 19 63  1  0  0  0  0
 63 64  1  0  0  0  0
 64 65  1  0  0  0  0
 65 66  1  0  0  0  0
 66 67  1  0  0  0  0
 66 68  1  0  0  0  0
 66 69  1  0  0  0  0
 65 70  1  0  0  0  0
 70 71  1  0  0  0  0
 70 72  1  0  0  0  0
 70 73  1  0  0  0  0
 65 74  1  0  0  0  0
 63 75  1  0  0  0  0
 74 75  1  0  0  0  0
 74 76  1  0  0  0  0
 76 77  1  0  0  0  0
 76 78  1  0  0  0  0
 76 79  1  0  0  0  0
 74 80  1  0  0  0  0
 80 81  1  0  0  0  0
 80 82  1  0  0  0  0
 80 83  1  0  0  0  0
  4 84  1  0  0  0  0
 14 85  1  0  0  0  0
 19 86  1  0  0  0  0
 20 86  1  0  0  0  0
 86 87  4  0  0  0  0
 86 88  4  0  0  0  0
 87 89  4  0  0  0  0
 87 90  1  0  0  0  0
 88 91  4  0  0  0  0
 88 92  1  0  0  0  0
 89 93  4  0  0  0  0
 91 93  4  0  0  0  0
 89 94  1  0  0  0  0
 91 95  1  0  0  0  0
 92 96  1  0  0  0  0
 92 97  1  0  0  0  0
 92 98  1  0  0  0  0
 93 99  1  0  0  0  0
M  END
