   33

N          0.01553       -1.75055        0.04245
C         -0.04586       -3.16955        0.09427
O         -1.10940       -3.76955        0.13306
O          1.18864       -3.73724        0.09736
C          1.21155       -5.17709        0.14951
C          0.95849       -5.75917       -1.23824
C          2.59038       -5.60149        0.64392
C          1.15993       -0.93090        0.01236
C          2.54048       -1.23001        0.00202
C          3.46967       -0.18412       -0.00886
C          3.05307        1.13785       -0.01269
C          1.69152        1.44062       -0.00968
C          0.73273        0.40178        0.00250
C         -0.68877        0.40846        0.00822
C         -1.64818        1.44705        0.00095
C         -3.01041        1.14213       -0.00004
C         -3.42805       -0.18111        0.00358
C         -2.49745       -1.22386        0.01349
C         -1.11914       -0.91814        0.02026
H          0.46057       -5.53987        0.86237
H          1.68108       -5.36758       -1.96267
H         -0.03544       -5.49046       -1.60899
H          1.03247       -6.85125       -1.22475
H          3.37824       -5.22351       -0.01722
H          2.67267       -6.69210        0.69575
H          2.78802       -5.19002        1.63913
H          2.91283       -2.24875        0.00843
H          4.53291       -0.41406       -0.00985
H          1.37052        2.47891       -0.01267
H         -1.32940        2.48589       -0.00665
H         -3.74448        1.94344       -0.00672
H         -4.49044       -0.41369       -0.00149
H         -2.85675       -2.24946        0.01497
