
  xtb     01142215113D
 xtb: 6.4.1 (1a32961)
103111  0     0  0            999 V2000
   -0.8896   -1.9919   -0.4166 N   0  0  0  0  0  0  0  0  0  0  0  0
   -2.1516   -1.5384   -0.5562 C   0  0  0  0  0  0  0  0  0  0  0  0
   -3.0091   -2.0842   -1.5213 C   0  0  0  0  0  0  0  0  0  0  0  0
   -2.5640   -3.0944   -2.3437 C   0  0  0  0  0  0  0  0  0  0  0  0
   -1.2568   -3.5528   -2.1877 C   0  0  0  0  0  0  0  0  0  0  0  0
   -0.4716   -2.9699   -1.2166 C   0  0  0  0  0  0  0  0  0  0  0  0
    0.5468   -3.2954   -1.0567 H   0  0  0  0  0  0  0  0  0  0  0  0
   -0.8663   -4.3430   -2.8083 H   0  0  0  0  0  0  0  0  0  0  0  0
   -4.0157   -1.7154   -1.6315 H   0  0  0  0  0  0  0  0  0  0  0  0
   -2.5494   -0.4602    0.3365 C   0  0  0  0  0  0  0  0  0  0  0  0
   -1.6005    0.0052    1.1783 N   0  0  0  0  0  0  0  0  0  0  0  0
   -1.9202    0.9860    2.0199 C   0  0  0  0  0  0  0  0  0  0  0  0
   -3.1725    1.5604    2.0817 C   0  0  0  0  0  0  0  0  0  0  0  0
   -4.1601    1.0980    1.2140 C   0  0  0  0  0  0  0  0  0  0  0  0
   -3.8403    0.0854    0.3372 C   0  0  0  0  0  0  0  0  0  0  0  0
   -4.5915   -0.2866   -0.3399 H   0  0  0  0  0  0  0  0  0  0  0  0
   -3.3778    2.3445    2.7925 H   0  0  0  0  0  0  0  0  0  0  0  0
   -1.1195    1.3171    2.6628 H   0  0  0  0  0  0  0  0  0  0  0  0
    0.4215   -0.8165    0.9133 Ir  0  0  0  0  0  0  0  0  0  0  0  0
    0.8726   -2.2303    1.5405 H   0  0  0  0  0  0  0  0  0  0  0  0
    0.3782    0.6712   -0.5560 B   0  0  0  0  0  0  0  0  0  0  0  0
   -0.3132    0.4532   -1.7372 O   0  0  0  0  0  0  0  0  0  0  0  0
   -0.4443    1.6805   -2.4614 C   0  0  0  0  0  0  0  0  0  0  0  0
   -0.2749    1.4229   -3.9566 C   0  0  0  0  0  0  0  0  0  0  0  0
    0.6339    0.8627   -4.1501 H   0  0  0  0  0  0  0  0  0  0  0  0
   -0.2453    2.3663   -4.4960 H   0  0  0  0  0  0  0  0  0  0  0  0
   -1.1180    0.8385   -4.3173 H   0  0  0  0  0  0  0  0  0  0  0  0
   -1.8625    2.2076   -2.1964 C   0  0  0  0  0  0  0  0  0  0  0  0
   -2.0552    3.1189   -2.7548 H   0  0  0  0  0  0  0  0  0  0  0  0
   -2.5789    1.4466   -2.5004 H   0  0  0  0  0  0  0  0  0  0  0  0
   -1.9994    2.3918   -1.1325 H   0  0  0  0  0  0  0  0  0  0  0  0
    0.6621    2.5755   -1.8151 C   0  0  0  0  0  0  0  0  0  0  0  0
    0.8346    1.9708   -0.5273 O   0  0  0  0  0  0  0  0  0  0  0  0
    2.0086    2.4594   -2.5404 C   0  0  0  0  0  0  0  0  0  0  0  0
    2.2974    1.4121   -2.5891 H   0  0  0  0  0  0  0  0  0  0  0  0
    1.9631    2.8908   -3.5363 H   0  0  0  0  0  0  0  0  0  0  0  0
    2.7631    2.9845   -1.9593 H   0  0  0  0  0  0  0  0  0  0  0  0
    0.2909    4.0488   -1.6574 C   0  0  0  0  0  0  0  0  0  0  0  0
   -0.5505    4.1719   -0.9825 H   0  0  0  0  0  0  0  0  0  0  0  0
    1.1396    4.5879   -1.2431 H   0  0  0  0  0  0  0  0  0  0  0  0
    0.0444    4.4760   -2.6262 H   0  0  0  0  0  0  0  0  0  0  0  0
    1.5545    0.6384    1.8947 B   0  0  0  0  0  0  0  0  0  0  0  0
    2.9236    0.7829    1.9097 O   0  0  0  0  0  0  0  0  0  0  0  0
    3.2816    2.0438    2.4924 C   0  0  0  0  0  0  0  0  0  0  0  0
    4.5304    1.8798    3.3577 C   0  0  0  0  0  0  0  0  0  0  0  0
    4.4052    1.0753    4.0746 H   0  0  0  0  0  0  0  0  0  0  0  0
    5.3765    1.6360    2.7202 H   0  0  0  0  0  0  0  0  0  0  0  0
    4.7445    2.8068    3.8830 H   0  0  0  0  0  0  0  0  0  0  0  0
    3.5847    2.9933    1.3271 C   0  0  0  0  0  0  0  0  0  0  0  0
    3.8507    3.9860    1.6782 H   0  0  0  0  0  0  0  0  0  0  0  0
    4.4146    2.5859    0.7539 H   0  0  0  0  0  0  0  0  0  0  0  0
    2.7169    3.0359    0.6741 H   0  0  0  0  0  0  0  0  0  0  0  0
    1.9845    2.4412    3.2757 C   0  0  0  0  0  0  0  0  0  0  0  0
    0.9774    1.6406    2.6448 O   0  0  0  0  0  0  0  0  0  0  0  0
    1.5963    3.9152    3.1721 C   0  0  0  0  0  0  0  0  0  0  0  0
    1.3776    4.1815    2.1435 H   0  0  0  0  0  0  0  0  0  0  0  0
    0.7027    4.0896    3.7664 H   0  0  0  0  0  0  0  0  0  0  0  0
    2.3981    4.5428    3.5522 H   0  0  0  0  0  0  0  0  0  0  0  0
    2.0255    2.0326    4.7540 C   0  0  0  0  0  0  0  0  0  0  0  0
    2.2459    0.9722    4.8374 H   0  0  0  0  0  0  0  0  0  0  0  0
    2.7624    2.6130    5.3007 H   0  0  0  0  0  0  0  0  0  0  0  0
    1.0440    2.2049    5.1894 H   0  0  0  0  0  0  0  0  0  0  0  0
    2.2782   -1.3309    0.1741 B   0  0  0  0  0  0  0  0  0  0  0  0
    3.1379   -2.2796    0.6883 O   0  0  0  0  0  0  0  0  0  0  0  0
    4.4130   -2.2039    0.0393 C   0  0  0  0  0  0  0  0  0  0  0  0
    5.3485   -1.4663    1.0036 C   0  0  0  0  0  0  0  0  0  0  0  0
    4.9015   -0.5110    1.2635 H   0  0  0  0  0  0  0  0  0  0  0  0
    5.4359   -2.0542    1.9139 H   0  0  0  0  0  0  0  0  0  0  0  0
    6.3362   -1.3270    0.5751 H   0  0  0  0  0  0  0  0  0  0  0  0
    4.9471   -3.6159   -0.2029 C   0  0  0  0  0  0  0  0  0  0  0  0
    5.1118   -4.0971    0.7575 H   0  0  0  0  0  0  0  0  0  0  0  0
    5.8894   -3.5713   -0.7419 H   0  0  0  0  0  0  0  0  0  0  0  0
    4.2377   -4.2169   -0.7620 H   0  0  0  0  0  0  0  0  0  0  0  0
    4.0968   -1.3820   -1.2607 C   0  0  0  0  0  0  0  0  0  0  0  0
    2.8329   -0.7753   -0.9579 O   0  0  0  0  0  0  0  0  0  0  0  0
    5.1091   -0.2843   -1.5864 C   0  0  0  0  0  0  0  0  0  0  0  0
    6.0995   -0.7095   -1.7240 H   0  0  0  0  0  0  0  0  0  0  0  0
    4.8091    0.2135   -2.5052 H   0  0  0  0  0  0  0  0  0  0  0  0
    5.1305    0.4551   -0.7935 H   0  0  0  0  0  0  0  0  0  0  0  0
    3.8951   -2.2599   -2.5036 C   0  0  0  0  0  0  0  0  0  0  0  0
    3.1441   -3.0207   -2.3097 H   0  0  0  0  0  0  0  0  0  0  0  0
    3.5342   -1.6331   -3.3156 H   0  0  0  0  0  0  0  0  0  0  0  0
    4.8262   -2.7295   -2.8062 H   0  0  0  0  0  0  0  0  0  0  0  0
   -3.2138   -3.5199   -3.0935 H   0  0  0  0  0  0  0  0  0  0  0  0
   -5.1536    1.5207    1.2282 H   0  0  0  0  0  0  0  0  0  0  0  0
    0.2359   -1.6814    2.9603 C   0  0  0  0  0  0  0  0  0  0  0  0
   -1.0347   -2.0736    3.3372 C   0  0  0  0  0  0  0  0  0  0  0  0
    1.2408   -1.5568    3.9374 C   0  0  0  0  0  0  0  0  0  0  0  0
   -1.3287   -2.2400    4.6940 C   0  0  0  0  0  0  0  0  0  0  0  0
   -1.8123   -2.2657    2.6100 H   0  0  0  0  0  0  0  0  0  0  0  0
    0.9864   -1.7281    5.2809 C   0  0  0  0  0  0  0  0  0  0  0  0
    2.2441   -1.3327    3.6084 H   0  0  0  0  0  0  0  0  0  0  0  0
   -0.3108   -2.0593    5.6607 C   0  0  0  0  0  0  0  0  0  0  0  0
   -2.5014   -2.6040    5.4126 C   0  0  0  0  0  0  0  0  0  0  0  0
    1.7737   -1.6277    6.0140 H   0  0  0  0  0  0  0  0  0  0  0  0
   -0.8468   -2.3011    6.8954 N   0  0  0  0  0  0  0  0  0  0  0  0
   -2.1625   -2.6275    6.7331 C   0  0  0  0  0  0  0  0  0  0  0  0
   -3.4669   -2.8156    4.9957 H   0  0  0  0  0  0  0  0  0  0  0  0
   -0.1315   -2.2570    8.1401 C   0  0  0  0  0  0  0  0  0  0  0  0
   -2.7734   -2.8587    7.5857 H   0  0  0  0  0  0  0  0  0  0  0  0
    0.3403   -1.2812    8.2719 H   0  0  0  0  0  0  0  0  0  0  0  0
    0.6446   -3.0264    8.1639 H   0  0  0  0  0  0  0  0  0  0  0  0
   -0.8263   -2.4299    8.9596 H   0  0  0  0  0  0  0  0  0  0  0  0
  1  2  4  0  0  0  0
  2  3  4  0  0  0  0
  3  4  4  0  0  0  0
  4  5  4  0  0  0  0
  1  6  4  0  0  0  0
  5  6  4  0  0  0  0
  6  7  1  0  0  0  0
  5  8  1  0  0  0  0
  3  9  1  0  0  0  0
  2 10  1  0  0  0  0
 10 11  4  0  0  0  0
 11 12  4  0  0  0  0
 12 13  4  0  0  0  0
 13 14  4  0  0  0  0
 10 15  4  0  0  0  0
 14 15  4  0  0  0  0
 15 16  1  0  0  0  0
 13 17  1  0  0  0  0
 12 18  1  0  0  0  0
  1 19  1  0  0  0  0
 11 19  1  0  0  0  0
 19 20  1  0  0  0  0
 19 21  1  0  0  0  0
 21 22  1  0  0  0  0
 22 23  1  0  0  0  0
 23 24  1  0  0  0  0
 24 25  1  0  0  0  0
 24 26  1  0  0  0  0
 24 27  1  0  0  0  0
 23 28  1  0  0  0  0
 28 29  1  0  0  0  0
 28 30  1  0  0  0  0
 28 31  1  0  0  0  0
 23 32  1  0  0  0  0
 21 33  1  0  0  0  0
 32 33  1  0  0  0  0
 32 34  1  0  0  0  0
 34 35  1  0  0  0  0
 34 36  1  0  0  0  0
 34 37  1  0  0  0  0
 32 38  1  0  0  0  0
 38 39  1  0  0  0  0
 38 40  1  0  0  0  0
 38 41  1  0  0  0  0
 19 42  1  0  0  0  0
 42 43  1  0  0  0  0
 43 44  1  0  0  0  0
 44 45  1  0  0  0  0
 45 46  1  0  0  0  0
 45 47  1  0  0  0  0
 45 48  1  0  0  0  0
 44 49  1  0  0  0  0
 49 50  1  0  0  0  0
 49 51  1  0  0  0  0
 49 52  1  0  0  0  0
 44 53  1  0  0  0  0
 42 54  1  0  0  0  0
 53 54  1  0  0  0  0
 53 55  1  0  0  0  0
 55 56  1  0  0  0  0
 55 57  1  0  0  0  0
 55 58  1  0  0  0  0
 53 59  1  0  0  0  0
 59 60  1  0  0  0  0
 59 61  1  0  0  0  0
 59 62  1  0  0  0  0
 19 63  1  0  0  0  0
 63 64  1  0  0  0  0
 64 65  1  0  0  0  0
 65 66  1  0  0  0  0
 66 67  1  0  0  0  0
 66 68  1  0  0  0  0
 66 69  1  0  0  0  0
 65 70  1  0  0  0  0
 70 71  1  0  0  0  0
 70 72  1  0  0  0  0
 70 73  1  0  0  0  0
 65 74  1  0  0  0  0
 63 75  1  0  0  0  0
 74 75  1  0  0  0  0
 74 76  1  0  0  0  0
 76 77  1  0  0  0  0
 76 78  1  0  0  0  0
 76 79  1  0  0  0  0
 74 80  1  0  0  0  0
 80 81  1  0  0  0  0
 80 82  1  0  0  0  0
 80 83  1  0  0  0  0
  4 84  1  0  0  0  0
 14 85  1  0  0  0  0
 19 86  1  0  0  0  0
 20 86  1  0  0  0  0
 86 87  4  0  0  0  0
 86 88  4  0  0  0  0
 87 89  4  0  0  0  0
 87 90  1  0  0  0  0
 88 91  2  0  0  0  0
 88 92  1  0  0  0  0
 89 93  4  0  0  0  0
 91 93  4  0  0  0  0
 89 94  4  0  0  0  0
 91 95  1  0  0  0  0
 93 96  1  0  0  0  0
 94 97  2  0  0  0  0
 96 97  4  0  0  0  0
 94 98  1  0  0  0  0
 96 99  1  0  0  0  0
 97100  1  0  0  0  0
 99101  1  0  0  0  0
 99102  1  0  0  0  0
 99103  1  0  0  0  0
M  END
