   23

C          0.35973        0.82436        0.92794
C          0.67851        1.29327       -0.34108
C          0.37616        0.48980       -1.42606
N         -0.22638       -0.71520       -1.32719
C         -0.53868       -1.15996       -0.08128
C         -1.27314       -2.47781        0.01817
C         -0.40206       -3.70946        0.13113
C         -0.52498       -4.57200        1.23091
C          0.20913       -5.75837        1.28939
C          1.07493       -6.09696        0.25123
C          1.21518       -5.24423       -0.84142
C          0.48125       -4.05728       -0.90173
C         -0.24807       -0.42084        1.06430
H          0.57620        1.42848        1.80423
H          0.61198        0.80538       -2.43867
H         -1.91202       -2.59365       -0.86744
H         -1.96820       -2.42890        0.86697
H         -1.20973       -4.33661        2.04228
H          0.09613       -6.42594        2.14004
H          1.63527       -7.02746        0.29034
H          1.88664       -5.50667       -1.65435
H          0.58970       -3.40819       -1.76894
H         -0.50814       -0.79582        2.04937
