
  xtb     01142214173D
 xtb: 6.4.1 (1a32961)
 99107  0     0  0            999 V2000
   -0.9083   -2.0181   -0.3846 N   0  0  0  0  0  0  0  0  0  0  0  0
   -2.1578   -1.5461   -0.5573 C   0  0  0  0  0  0  0  0  0  0  0  0
   -3.0310   -2.1438   -1.4759 C   0  0  0  0  0  0  0  0  0  0  0  0
   -2.6084   -3.2180   -2.2270 C   0  0  0  0  0  0  0  0  0  0  0  0
   -1.3087   -3.6862   -2.0471 C   0  0  0  0  0  0  0  0  0  0  0  0
   -0.5102   -3.0547   -1.1173 C   0  0  0  0  0  0  0  0  0  0  0  0
    0.5018   -3.3890   -0.9376 H   0  0  0  0  0  0  0  0  0  0  0  0
   -0.9342   -4.5232   -2.6137 H   0  0  0  0  0  0  0  0  0  0  0  0
   -4.0343   -1.7714   -1.6018 H   0  0  0  0  0  0  0  0  0  0  0  0
   -2.5294   -0.3911    0.2493 C   0  0  0  0  0  0  0  0  0  0  0  0
   -1.5971    0.0672    1.1123 N   0  0  0  0  0  0  0  0  0  0  0  0
   -1.8953    1.1175    1.8744 C   0  0  0  0  0  0  0  0  0  0  0  0
   -3.1060    1.7769    1.8243 C   0  0  0  0  0  0  0  0  0  0  0  0
   -4.0709    1.3285    0.9255 C   0  0  0  0  0  0  0  0  0  0  0  0
   -3.7751    0.2389    0.1358 C   0  0  0  0  0  0  0  0  0  0  0  0
   -4.5083   -0.1198   -0.5674 H   0  0  0  0  0  0  0  0  0  0  0  0
   -3.2949    2.6183    2.4712 H   0  0  0  0  0  0  0  0  0  0  0  0
   -1.1121    1.4358    2.5451 H   0  0  0  0  0  0  0  0  0  0  0  0
    0.4215   -0.8165    0.9133 Ir  0  0  0  0  0  0  0  0  0  0  0  0
    0.8726   -2.2303    1.5405 H   0  0  0  0  0  0  0  0  0  0  0  0
    0.3997    0.6273   -0.5967 B   0  0  0  0  0  0  0  0  0  0  0  0
   -0.2515    0.3535   -1.7855 O   0  0  0  0  0  0  0  0  0  0  0  0
   -0.3310    1.5377   -2.5861 C   0  0  0  0  0  0  0  0  0  0  0  0
   -0.0861    1.1841   -4.0509 C   0  0  0  0  0  0  0  0  0  0  0  0
    0.8267    0.6074   -4.1576 H   0  0  0  0  0  0  0  0  0  0  0  0
   -0.0201    2.0894   -4.6488 H   0  0  0  0  0  0  0  0  0  0  0  0
   -0.9140    0.5811   -4.4166 H   0  0  0  0  0  0  0  0  0  0  0  0
   -1.7539    2.0929   -2.4296 C   0  0  0  0  0  0  0  0  0  0  0  0
   -1.9031    2.9699   -3.0525 H   0  0  0  0  0  0  0  0  0  0  0  0
   -2.4630    1.3223   -2.7258 H   0  0  0  0  0  0  0  0  0  0  0  0
   -1.9459    2.3448   -1.3884 H   0  0  0  0  0  0  0  0  0  0  0  0
    0.7522    2.4601   -1.9372 C   0  0  0  0  0  0  0  0  0  0  0  0
    0.8608    1.9242   -0.6110 O   0  0  0  0  0  0  0  0  0  0  0  0
    2.1293    2.2966   -2.5918 C   0  0  0  0  0  0  0  0  0  0  0  0
    2.4150    1.2479   -2.5601 H   0  0  0  0  0  0  0  0  0  0  0  0
    2.1301    2.6637   -3.6141 H   0  0  0  0  0  0  0  0  0  0  0  0
    2.8592    2.8578   -2.0132 H   0  0  0  0  0  0  0  0  0  0  0  0
    0.3878    3.9421   -1.8763 C   0  0  0  0  0  0  0  0  0  0  0  0
   -0.4907    4.1082   -1.2604 H   0  0  0  0  0  0  0  0  0  0  0  0
    1.2167    4.4950   -1.4408 H   0  0  0  0  0  0  0  0  0  0  0  0
    0.2039    4.3205   -2.8787 H   0  0  0  0  0  0  0  0  0  0  0  0
    1.5607    0.6596    1.8590 B   0  0  0  0  0  0  0  0  0  0  0  0
    2.9190    0.8534    1.7924 O   0  0  0  0  0  0  0  0  0  0  0  0
    3.2802    2.1055    2.3903 C   0  0  0  0  0  0  0  0  0  0  0  0
    4.5402    1.9220    3.2362 C   0  0  0  0  0  0  0  0  0  0  0  0
    4.4144    1.1115    3.9463 H   0  0  0  0  0  0  0  0  0  0  0  0
    5.3737    1.6739    2.5841 H   0  0  0  0  0  0  0  0  0  0  0  0
    4.7731    2.8410    3.7669 H   0  0  0  0  0  0  0  0  0  0  0  0
    3.5756    3.0699    1.2354 C   0  0  0  0  0  0  0  0  0  0  0  0
    3.8308    4.0615    1.5967 H   0  0  0  0  0  0  0  0  0  0  0  0
    4.4121    2.6767    0.6618 H   0  0  0  0  0  0  0  0  0  0  0  0
    2.7101    3.1117    0.5797 H   0  0  0  0  0  0  0  0  0  0  0  0
    1.9946    2.4916    3.2033 C   0  0  0  0  0  0  0  0  0  0  0  0
    0.9905    1.6347    2.6447 O   0  0  0  0  0  0  0  0  0  0  0  0
    1.5501    3.9458    3.0465 C   0  0  0  0  0  0  0  0  0  0  0  0
    1.2981    4.1593    2.0132 H   0  0  0  0  0  0  0  0  0  0  0  0
    0.6648    4.1132    3.6553 H   0  0  0  0  0  0  0  0  0  0  0  0
    2.3357    4.6180    3.3803 H   0  0  0  0  0  0  0  0  0  0  0  0
    2.0926    2.1579    4.6969 C   0  0  0  0  0  0  0  0  0  0  0  0
    2.3562    1.1130    4.8308 H   0  0  0  0  0  0  0  0  0  0  0  0
    2.8237    2.7886    5.1929 H   0  0  0  0  0  0  0  0  0  0  0  0
    1.1191    2.3189    5.1541 H   0  0  0  0  0  0  0  0  0  0  0  0
    2.2782   -1.3309    0.1741 B   0  0  0  0  0  0  0  0  0  0  0  0
    3.1700   -2.2136    0.7472 O   0  0  0  0  0  0  0  0  0  0  0  0
    4.4199   -2.1928    0.0460 C   0  0  0  0  0  0  0  0  0  0  0  0
    5.3843   -1.3531    0.8912 C   0  0  0  0  0  0  0  0  0  0  0  0
    4.9411   -0.3769    1.0676 H   0  0  0  0  0  0  0  0  0  0  0  0
    5.5166   -1.8420    1.8534 H   0  0  0  0  0  0  0  0  0  0  0  0
    6.3525   -1.2538    0.4107 H   0  0  0  0  0  0  0  0  0  0  0  0
    4.9597   -3.6182   -0.0709 C   0  0  0  0  0  0  0  0  0  0  0  0
    5.1704   -3.9952    0.9265 H   0  0  0  0  0  0  0  0  0  0  0  0
    5.8778   -3.6237   -0.6516 H   0  0  0  0  0  0  0  0  0  0  0  0
    4.2344   -4.2796   -0.5327 H   0  0  0  0  0  0  0  0  0  0  0  0
    4.0420   -1.5100   -1.3157 C   0  0  0  0  0  0  0  0  0  0  0  0
    2.7879   -0.8755   -1.0200 O   0  0  0  0  0  0  0  0  0  0  0  0
    5.0362   -0.4553   -1.7990 C   0  0  0  0  0  0  0  0  0  0  0  0
    6.0228   -0.8938   -1.9212 H   0  0  0  0  0  0  0  0  0  0  0  0
    4.7051   -0.0660   -2.7585 H   0  0  0  0  0  0  0  0  0  0  0  0
    5.0836    0.3697   -1.0966 H   0  0  0  0  0  0  0  0  0  0  0  0
    3.7861   -2.5140   -2.4476 C   0  0  0  0  0  0  0  0  0  0  0  0
    3.0555   -3.2553   -2.1361 H   0  0  0  0  0  0  0  0  0  0  0  0
    3.3764   -1.9785   -3.3007 H   0  0  0  0  0  0  0  0  0  0  0  0
    4.7060   -3.0068   -2.7470 H   0  0  0  0  0  0  0  0  0  0  0  0
   -3.2711   -3.6848   -2.9398 H   0  0  0  0  0  0  0  0  0  0  0  0
   -5.0284    1.8210    0.8477 H   0  0  0  0  0  0  0  0  0  0  0  0
    0.2359   -1.6814    2.9603 C   0  0  0  0  0  0  0  0  0  0  0  0
   -1.0743   -1.9670    3.3191 C   0  0  0  0  0  0  0  0  0  0  0  0
    1.1869   -1.6336    3.9924 C   0  0  0  0  0  0  0  0  0  0  0  0
   -1.4739   -2.0665    4.6514 C   0  0  0  0  0  0  0  0  0  0  0  0
   -1.8277   -2.1184    2.5589 H   0  0  0  0  0  0  0  0  0  0  0  0
    0.7660   -1.7429    5.3334 C   0  0  0  0  0  0  0  0  0  0  0  0
    2.6088   -1.5161    3.8991 C   0  0  0  0  0  0  0  0  0  0  0  0
   -0.5623   -1.9379    5.6789 C   0  0  0  0  0  0  0  0  0  0  0  0
   -2.5136   -2.2542    4.8802 H   0  0  0  0  0  0  0  0  0  0  0  0
    2.1137   -1.6581    6.4371 S   0  0  0  0  0  0  0  0  0  0  0  0
    3.2185   -1.5182    5.1003 C   0  0  0  0  0  0  0  0  0  0  0  0
    3.1080   -1.4460    2.9517 H   0  0  0  0  0  0  0  0  0  0  0  0
   -0.8599   -2.0118    6.7134 H   0  0  0  0  0  0  0  0  0  0  0  0
    4.2660   -1.4505    5.3218 H   0  0  0  0  0  0  0  0  0  0  0  0
  1  2  4  0  0  0  0
  2  3  4  0  0  0  0
  3  4  4  0  0  0  0
  4  5  4  0  0  0  0
  1  6  4  0  0  0  0
  5  6  4  0  0  0  0
  6  7  1  0  0  0  0
  5  8  1  0  0  0  0
  3  9  1  0  0  0  0
  2 10  1  0  0  0  0
 10 11  4  0  0  0  0
 11 12  4  0  0  0  0
 12 13  4  0  0  0  0
 13 14  4  0  0  0  0
 10 15  4  0  0  0  0
 14 15  4  0  0  0  0
 15 16  1  0  0  0  0
 13 17  1  0  0  0  0
 12 18  1  0  0  0  0
  1 19  1  0  0  0  0
 11 19  1  0  0  0  0
 19 20  1  0  0  0  0
 19 21  1  0  0  0  0
 21 22  1  0  0  0  0
 22 23  1  0  0  0  0
 23 24  1  0  0  0  0
 24 25  1  0  0  0  0
 24 26  1  0  0  0  0
 24 27  1  0  0  0  0
 23 28  1  0  0  0  0
 28 29  1  0  0  0  0
 28 30  1  0  0  0  0
 28 31  1  0  0  0  0
 23 32  1  0  0  0  0
 21 33  1  0  0  0  0
 32 33  1  0  0  0  0
 32 34  1  0  0  0  0
 34 35  1  0  0  0  0
 34 36  1  0  0  0  0
 34 37  1  0  0  0  0
 32 38  1  0  0  0  0
 38 39  1  0  0  0  0
 38 40  1  0  0  0  0
 38 41  1  0  0  0  0
 19 42  1  0  0  0  0
 42 43  1  0  0  0  0
 43 44  1  0  0  0  0
 44 45  1  0  0  0  0
 45 46  1  0  0  0  0
 45 47  1  0  0  0  0
 45 48  1  0  0  0  0
 44 49  1  0  0  0  0
 49 50  1  0  0  0  0
 49 51  1  0  0  0  0
 49 52  1  0  0  0  0
 44 53  1  0  0  0  0
 42 54  1  0  0  0  0
 53 54  1  0  0  0  0
 53 55  1  0  0  0  0
 55 56  1  0  0  0  0
 55 57  1  0  0  0  0
 55 58  1  0  0  0  0
 53 59  1  0  0  0  0
 59 60  1  0  0  0  0
 59 61  1  0  0  0  0
 59 62  1  0  0  0  0
 19 63  1  0  0  0  0
 63 64  1  0  0  0  0
 64 65  1  0  0  0  0
 65 66  1  0  0  0  0
 66 67  1  0  0  0  0
 66 68  1  0  0  0  0
 66 69  1  0  0  0  0
 65 70  1  0  0  0  0
 70 71  1  0  0  0  0
 70 72  1  0  0  0  0
 70 73  1  0  0  0  0
 65 74  1  0  0  0  0
 63 75  1  0  0  0  0
 74 75  1  0  0  0  0
 74 76  1  0  0  0  0
 76 77  1  0  0  0  0
 76 78  1  0  0  0  0
 76 79  1  0  0  0  0
 74 80  1  0  0  0  0
 80 81  1  0  0  0  0
 80 82  1  0  0  0  0
 80 83  1  0  0  0  0
  4 84  1  0  0  0  0
 14 85  1  0  0  0  0
 19 86  1  0  0  0  0
 20 86  1  0  0  0  0
 86 87  4  0  0  0  0
 86 88  4  0  0  0  0
 87 89  4  0  0  0  0
 87 90  1  0  0  0  0
 88 91  4  0  0  0  0
 88 92  1  0  0  0  0
 89 93  4  0  0  0  0
 91 93  4  0  0  0  0
 89 94  1  0  0  0  0
 91 95  1  0  0  0  0
 92 96  2  0  0  0  0
 95 96  1  0  0  0  0
 92 97  1  0  0  0  0
 93 98  1  0  0  0  0
 96 99  1  0  0  0  0
M  END
