
  xtb     01142213183D
 xtb: 6.4.1 (1a32961)
 96103  0     0  0            999 V2000
   -0.8871   -2.0552   -0.3571 N   0  0  0  0  0  0  0  0  0  0  0  0
   -2.1480   -1.6122   -0.5320 C   0  0  0  0  0  0  0  0  0  0  0  0
   -3.0319   -2.2775   -1.3931 C   0  0  0  0  0  0  0  0  0  0  0  0
   -2.6086   -3.3874   -2.0887 C   0  0  0  0  0  0  0  0  0  0  0  0
   -1.2964   -3.8236   -1.9111 C   0  0  0  0  0  0  0  0  0  0  0  0
   -0.4886   -3.1275   -1.0381 C   0  0  0  0  0  0  0  0  0  0  0  0
    0.5323   -3.4363   -0.8615 H   0  0  0  0  0  0  0  0  0  0  0  0
   -0.9207   -4.6866   -2.4365 H   0  0  0  0  0  0  0  0  0  0  0  0
   -4.0452   -1.9304   -1.5128 H   0  0  0  0  0  0  0  0  0  0  0  0
   -2.5193   -0.4210    0.2153 C   0  0  0  0  0  0  0  0  0  0  0  0
   -1.5946    0.0636    1.0751 N   0  0  0  0  0  0  0  0  0  0  0  0
   -1.8955    1.1516    1.7839 C   0  0  0  0  0  0  0  0  0  0  0  0
   -3.0964    1.8215    1.6822 C   0  0  0  0  0  0  0  0  0  0  0  0
   -4.0516    1.3454    0.7856 C   0  0  0  0  0  0  0  0  0  0  0  0
   -3.7548    0.2190    0.0509 C   0  0  0  0  0  0  0  0  0  0  0  0
   -4.4762   -0.1595   -0.6544 H   0  0  0  0  0  0  0  0  0  0  0  0
   -3.2862    2.6942    2.2860 H   0  0  0  0  0  0  0  0  0  0  0  0
   -1.1202    1.4916    2.4531 H   0  0  0  0  0  0  0  0  0  0  0  0
    0.4215   -0.8165    0.9133 Ir  0  0  0  0  0  0  0  0  0  0  0  0
    0.8726   -2.2303    1.5405 H   0  0  0  0  0  0  0  0  0  0  0  0
    0.4300    0.5958   -0.6207 B   0  0  0  0  0  0  0  0  0  0  0  0
   -0.1881    0.2853   -1.8189 O   0  0  0  0  0  0  0  0  0  0  0  0
   -0.2588    1.4473   -2.6508 C   0  0  0  0  0  0  0  0  0  0  0  0
    0.0318    1.0602   -4.0989 C   0  0  0  0  0  0  0  0  0  0  0  0
    0.9571    0.4976   -4.1664 H   0  0  0  0  0  0  0  0  0  0  0  0
    0.0981    1.9506   -4.7190 H   0  0  0  0  0  0  0  0  0  0  0  0
   -0.7753    0.4329   -4.4700 H   0  0  0  0  0  0  0  0  0  0  0  0
   -1.6929    1.9871   -2.5501 C   0  0  0  0  0  0  0  0  0  0  0  0
   -1.8354    2.8457   -3.1995 H   0  0  0  0  0  0  0  0  0  0  0  0
   -2.3829    1.1992   -2.8464 H   0  0  0  0  0  0  0  0  0  0  0  0
   -1.9186    2.2628   -1.5218 H   0  0  0  0  0  0  0  0  0  0  0  0
    0.7942    2.4003   -1.9956 C   0  0  0  0  0  0  0  0  0  0  0  0
    0.8768    1.8975   -0.6554 O   0  0  0  0  0  0  0  0  0  0  0  0
    2.1898    2.2433   -2.6116 C   0  0  0  0  0  0  0  0  0  0  0  0
    2.4914    1.2008   -2.5448 H   0  0  0  0  0  0  0  0  0  0  0  0
    2.2108    2.5843   -3.6428 H   0  0  0  0  0  0  0  0  0  0  0  0
    2.8959    2.8306   -2.0291 H   0  0  0  0  0  0  0  0  0  0  0  0
    0.4067    3.8776   -1.9779 C   0  0  0  0  0  0  0  0  0  0  0  0
   -0.4882    4.0443   -1.3862 H   0  0  0  0  0  0  0  0  0  0  0  0
    1.2167    4.4527   -1.5356 H   0  0  0  0  0  0  0  0  0  0  0  0
    0.2409    4.2303   -2.9928 H   0  0  0  0  0  0  0  0  0  0  0  0
    1.5492    0.6505    1.8820 B   0  0  0  0  0  0  0  0  0  0  0  0
    2.9209    0.7807    1.9062 O   0  0  0  0  0  0  0  0  0  0  0  0
    3.2870    2.0596    2.4421 C   0  0  0  0  0  0  0  0  0  0  0  0
    4.5252    1.9173    3.3259 C   0  0  0  0  0  0  0  0  0  0  0  0
    4.3786    1.1561    4.0847 H   0  0  0  0  0  0  0  0  0  0  0  0
    5.3710    1.6229    2.7097 H   0  0  0  0  0  0  0  0  0  0  0  0
    4.7535    2.8673    3.8016 H   0  0  0  0  0  0  0  0  0  0  0  0
    3.6130    2.9565    1.2414 C   0  0  0  0  0  0  0  0  0  0  0  0
    3.8848    3.9605    1.5534 H   0  0  0  0  0  0  0  0  0  0  0  0
    4.4459    2.5173    0.6967 H   0  0  0  0  0  0  0  0  0  0  0  0
    2.7541    2.9801    0.5756 H   0  0  0  0  0  0  0  0  0  0  0  0
    1.9866    2.5011    3.1953 C   0  0  0  0  0  0  0  0  0  0  0  0
    0.9765    1.6867    2.5859 O   0  0  0  0  0  0  0  0  0  0  0  0
    1.6167    3.9738    3.0257 C   0  0  0  0  0  0  0  0  0  0  0  0
    1.4066    4.1970    1.9849 H   0  0  0  0  0  0  0  0  0  0  0  0
    0.7233    4.1868    3.6076 H   0  0  0  0  0  0  0  0  0  0  0  0
    2.4250    4.6069    3.3816 H   0  0  0  0  0  0  0  0  0  0  0  0
    2.0064    2.1509    4.6888 C   0  0  0  0  0  0  0  0  0  0  0  0
    2.2078    1.0912    4.8207 H   0  0  0  0  0  0  0  0  0  0  0  0
    2.7478    2.7404    5.2193 H   0  0  0  0  0  0  0  0  0  0  0  0
    1.0248    2.3584    5.1083 H   0  0  0  0  0  0  0  0  0  0  0  0
    2.2782   -1.3309    0.1741 B   0  0  0  0  0  0  0  0  0  0  0  0
    3.0948   -2.3171    0.6895 O   0  0  0  0  0  0  0  0  0  0  0  0
    4.3822   -2.2741    0.0628 C   0  0  0  0  0  0  0  0  0  0  0  0
    5.3140   -1.5344    1.0289 C   0  0  0  0  0  0  0  0  0  0  0  0
    4.8895   -0.5590    1.2490 H   0  0  0  0  0  0  0  0  0  0  0  0
    5.3618   -2.0952    1.9588 H   0  0  0  0  0  0  0  0  0  0  0  0
    6.3152   -1.4358    0.6211 H   0  0  0  0  0  0  0  0  0  0  0  0
    4.8968   -3.6971   -0.1510 C   0  0  0  0  0  0  0  0  0  0  0  0
    5.0561   -4.1613    0.8185 H   0  0  0  0  0  0  0  0  0  0  0  0
    5.8397   -3.6760   -0.6904 H   0  0  0  0  0  0  0  0  0  0  0  0
    4.1795   -4.2992   -0.6987 H   0  0  0  0  0  0  0  0  0  0  0  0
    4.0974   -1.4651   -1.2499 C   0  0  0  0  0  0  0  0  0  0  0  0
    2.8678   -0.7883   -0.9459 O   0  0  0  0  0  0  0  0  0  0  0  0
    5.1659   -0.4351   -1.6109 C   0  0  0  0  0  0  0  0  0  0  0  0
    6.1318   -0.9191   -1.7264 H   0  0  0  0  0  0  0  0  0  0  0  0
    4.8991    0.0444   -2.5494 H   0  0  0  0  0  0  0  0  0  0  0  0
    5.2267    0.3302   -0.8449 H   0  0  0  0  0  0  0  0  0  0  0  0
    3.8319   -2.3634   -2.4659 C   0  0  0  0  0  0  0  0  0  0  0  0
    3.0512   -3.0836   -2.2367 H   0  0  0  0  0  0  0  0  0  0  0  0
    3.4833   -1.7427   -3.2880 H   0  0  0  0  0  0  0  0  0  0  0  0
    4.7347   -2.8827   -2.7730 H   0  0  0  0  0  0  0  0  0  0  0  0
   -3.2789   -3.9078   -2.7558 H   0  0  0  0  0  0  0  0  0  0  0  0
   -5.0003    1.8470    0.6669 H   0  0  0  0  0  0  0  0  0  0  0  0
    0.2359   -1.6814    2.9603 C   0  0  0  0  0  0  0  0  0  0  0  0
   -1.0198   -1.7982    3.5223 C   0  0  0  0  0  0  0  0  0  0  0  0
    1.1159   -1.8138    4.0657 C   0  0  0  0  0  0  0  0  0  0  0  0
   -0.8540   -1.9414    4.8583 N   0  0  0  0  0  0  0  0  0  0  0  0
   -2.0004   -1.7896    3.0889 H   0  0  0  0  0  0  0  0  0  0  0  0
    2.6011   -1.8646    4.0381 C   0  0  0  0  0  0  0  0  0  0  0  0
    0.4404   -1.9520    5.1956 N   0  0  0  0  0  0  0  0  0  0  0  0
   -1.5552   -2.0222    5.5769 H   0  0  0  0  0  0  0  0  0  0  0  0
    2.9234   -2.8237    3.6355 H   0  0  0  0  0  0  0  0  0  0  0  0
    2.9962   -1.7511    5.0443 H   0  0  0  0  0  0  0  0  0  0  0  0
    2.9831   -1.0918    3.3776 H   0  0  0  0  0  0  0  0  0  0  0  0
  1  2  4  0  0  0  0
  2  3  4  0  0  0  0
  3  4  4  0  0  0  0
  4  5  4  0  0  0  0
  1  6  4  0  0  0  0
  5  6  4  0  0  0  0
  6  7  1  0  0  0  0
  5  8  1  0  0  0  0
  3  9  1  0  0  0  0
  2 10  1  0  0  0  0
 10 11  4  0  0  0  0
 11 12  4  0  0  0  0
 12 13  4  0  0  0  0
 13 14  4  0  0  0  0
 10 15  4  0  0  0  0
 14 15  4  0  0  0  0
 15 16  1  0  0  0  0
 13 17  1  0  0  0  0
 12 18  1  0  0  0  0
  1 19  1  0  0  0  0
 11 19  1  0  0  0  0
 19 20  1  0  0  0  0
 19 21  1  0  0  0  0
 21 22  1  0  0  0  0
 22 23  1  0  0  0  0
 23 24  1  0  0  0  0
 24 25  1  0  0  0  0
 24 26  1  0  0  0  0
 24 27  1  0  0  0  0
 23 28  1  0  0  0  0
 28 29  1  0  0  0  0
 28 30  1  0  0  0  0
 28 31  1  0  0  0  0
 23 32  1  0  0  0  0
 21 33  1  0  0  0  0
 32 33  1  0  0  0  0
 32 34  1  0  0  0  0
 34 35  1  0  0  0  0
 34 36  1  0  0  0  0
 34 37  1  0  0  0  0
 32 38  1  0  0  0  0
 38 39  1  0  0  0  0
 38 40  1  0  0  0  0
 38 41  1  0  0  0  0
 19 42  1  0  0  0  0
 42 43  1  0  0  0  0
 43 44  1  0  0  0  0
 44 45  1  0  0  0  0
 45 46  1  0  0  0  0
 45 47  1  0  0  0  0
 45 48  1  0  0  0  0
 44 49  1  0  0  0  0
 49 50  1  0  0  0  0
 49 51  1  0  0  0  0
 49 52  1  0  0  0  0
 44 53  1  0  0  0  0
 42 54  1  0  0  0  0
 53 54  1  0  0  0  0
 53 55  1  0  0  0  0
 55 56  1  0  0  0  0
 55 57  1  0  0  0  0
 55 58  1  0  0  0  0
 53 59  1  0  0  0  0
 59 60  1  0  0  0  0
 59 61  1  0  0  0  0
 59 62  1  0  0  0  0
 19 63  1  0  0  0  0
 63 64  1  0  0  0  0
 64 65  1  0  0  0  0
 65 66  1  0  0  0  0
 66 67  1  0  0  0  0
 66 68  1  0  0  0  0
 66 69  1  0  0  0  0
 65 70  1  0  0  0  0
 70 71  1  0  0  0  0
 70 72  1  0  0  0  0
 70 73  1  0  0  0  0
 65 74  1  0  0  0  0
 63 75  1  0  0  0  0
 74 75  1  0  0  0  0
 74 76  1  0  0  0  0
 76 77  1  0  0  0  0
 76 78  1  0  0  0  0
 76 79  1  0  0  0  0
 74 80  1  0  0  0  0
 80 81  1  0  0  0  0
 80 82  1  0  0  0  0
 80 83  1  0  0  0  0
  4 84  1  0  0  0  0
 14 85  1  0  0  0  0
 19 86  1  0  0  0  0
 20 86  1  0  0  0  0
 86 87  4  0  0  0  0
 86 88  4  0  0  0  0
 87 89  4  0  0  0  0
 87 90  1  0  0  0  0
 88 91  1  0  0  0  0
 88 92  4  0  0  0  0
 89 92  1  0  0  0  0
 89 93  1  0  0  0  0
 91 94  1  0  0  0  0
 91 95  1  0  0  0  0
 91 96  1  0  0  0  0
M  END
