
  xtb     01142214213D
 xtb: 6.4.1 (1a32961)
110119  0     0  0            999 V2000
   -0.8685   -1.9290   -0.4887 N   0  0  0  0  0  0  0  0  0  0  0  0
   -2.0723   -1.3786   -0.7350 C   0  0  0  0  0  0  0  0  0  0  0  0
   -2.9184   -1.9088   -1.7172 C   0  0  0  0  0  0  0  0  0  0  0  0
   -2.5199   -3.0056   -2.4471 C   0  0  0  0  0  0  0  0  0  0  0  0
   -1.2697   -3.5619   -2.1851 C   0  0  0  0  0  0  0  0  0  0  0  0
   -0.4929   -2.9860   -1.2028 C   0  0  0  0  0  0  0  0  0  0  0  0
    0.4806   -3.3891   -0.9593 H   0  0  0  0  0  0  0  0  0  0  0  0
   -0.9173   -4.4228   -2.7301 H   0  0  0  0  0  0  0  0  0  0  0  0
   -3.8870   -1.4735   -1.8979 H   0  0  0  0  0  0  0  0  0  0  0  0
   -2.4249   -0.2151    0.0633 C   0  0  0  0  0  0  0  0  0  0  0  0
   -1.5375    0.1559    1.0133 N   0  0  0  0  0  0  0  0  0  0  0  0
   -1.8249    1.2155    1.7711 C   0  0  0  0  0  0  0  0  0  0  0  0
   -2.9718    1.9667    1.6298 C   0  0  0  0  0  0  0  0  0  0  0  0
   -3.8872    1.6057    0.6433 C   0  0  0  0  0  0  0  0  0  0  0  0
   -3.6060    0.5074   -0.1387 C   0  0  0  0  0  0  0  0  0  0  0  0
   -4.3038    0.2085   -0.9025 H   0  0  0  0  0  0  0  0  0  0  0  0
   -3.1525    2.8122    2.2744 H   0  0  0  0  0  0  0  0  0  0  0  0
   -1.0828    1.4624    2.5152 H   0  0  0  0  0  0  0  0  0  0  0  0
    0.4215   -0.8165    0.9133 Ir  0  0  0  0  0  0  0  0  0  0  0  0
    0.8726   -2.2303    1.5405 H   0  0  0  0  0  0  0  0  0  0  0  0
    0.5291    0.6464   -0.5808 B   0  0  0  0  0  0  0  0  0  0  0  0
   -0.0605    0.4051   -1.8062 O   0  0  0  0  0  0  0  0  0  0  0  0
   -0.0188    1.5839   -2.6167 C   0  0  0  0  0  0  0  0  0  0  0  0
    0.3195    1.1990   -4.0550 C   0  0  0  0  0  0  0  0  0  0  0  0
    1.2108    0.5811   -4.0853 H   0  0  0  0  0  0  0  0  0  0  0  0
    0.4697    2.0907   -4.6579 H   0  0  0  0  0  0  0  0  0  0  0  0
   -0.5051    0.6264   -4.4730 H   0  0  0  0  0  0  0  0  0  0  0  0
   -1.4199    2.2104   -2.5782 C   0  0  0  0  0  0  0  0  0  0  0  0
   -1.4740    3.0881   -3.2156 H   0  0  0  0  0  0  0  0  0  0  0  0
   -2.1404    1.4734   -2.9273 H   0  0  0  0  0  0  0  0  0  0  0  0
   -1.6831    2.4802   -1.5575 H   0  0  0  0  0  0  0  0  0  0  0  0
    1.0583    2.4585   -1.8931 C   0  0  0  0  0  0  0  0  0  0  0  0
    1.0588    1.9164   -0.5642 O   0  0  0  0  0  0  0  0  0  0  0  0
    2.4664    2.2406   -2.4594 C   0  0  0  0  0  0  0  0  0  0  0  0
    2.7080    1.1822   -2.4068 H   0  0  0  0  0  0  0  0  0  0  0  0
    2.5441    2.6023   -3.4805 H   0  0  0  0  0  0  0  0  0  0  0  0
    3.1808    2.7765   -1.8388 H   0  0  0  0  0  0  0  0  0  0  0  0
    0.7531    3.9544   -1.8471 C   0  0  0  0  0  0  0  0  0  0  0  0
   -0.1557    4.1554   -1.2887 H   0  0  0  0  0  0  0  0  0  0  0  0
    1.5745    4.4698   -1.3549 H   0  0  0  0  0  0  0  0  0  0  0  0
    0.6517    4.3437   -2.8569 H   0  0  0  0  0  0  0  0  0  0  0  0
    1.5813    0.5950    1.9267 B   0  0  0  0  0  0  0  0  0  0  0  0
    2.9537    0.6579    1.9626 O   0  0  0  0  0  0  0  0  0  0  0  0
    3.3815    1.8933    2.5513 C   0  0  0  0  0  0  0  0  0  0  0  0
    4.5882    1.6433    3.4549 C   0  0  0  0  0  0  0  0  0  0  0  0
    4.3781    0.8614    4.1768 H   0  0  0  0  0  0  0  0  0  0  0  0
    5.4290    1.3227    2.8451 H   0  0  0  0  0  0  0  0  0  0  0  0
    4.8621    2.5571    3.9752 H   0  0  0  0  0  0  0  0  0  0  0  0
    3.7908    2.8091    1.3914 C   0  0  0  0  0  0  0  0  0  0  0  0
    4.1153    3.7834    1.7444 H   0  0  0  0  0  0  0  0  0  0  0  0
    4.6091    2.3381    0.8510 H   0  0  0  0  0  0  0  0  0  0  0  0
    2.9516    2.9081    0.7079 H   0  0  0  0  0  0  0  0  0  0  0  0
    2.0918    2.3866    3.2933 C   0  0  0  0  0  0  0  0  0  0  0  0
    1.0493    1.6347    2.6565 O   0  0  0  0  0  0  0  0  0  0  0  0
    1.7997    3.8789    3.1453 C   0  0  0  0  0  0  0  0  0  0  0  0
    1.6185    4.1312    2.1059 H   0  0  0  0  0  0  0  0  0  0  0  0
    0.9085    4.1265    3.7167 H   0  0  0  0  0  0  0  0  0  0  0  0
    2.6329    4.4635    3.5259 H   0  0  0  0  0  0  0  0  0  0  0  0
    2.0718    2.0112    4.7803 C   0  0  0  0  0  0  0  0  0  0  0  0
    2.2177    0.9406    4.8930 H   0  0  0  0  0  0  0  0  0  0  0  0
    2.8342    2.5533    5.3311 H   0  0  0  0  0  0  0  0  0  0  0  0
    1.0957    2.2598    5.1899 H   0  0  0  0  0  0  0  0  0  0  0  0
    2.2782   -1.3309    0.1741 B   0  0  0  0  0  0  0  0  0  0  0  0
    3.1026   -2.2848    0.7364 O   0  0  0  0  0  0  0  0  0  0  0  0
    4.3623   -2.3241    0.0553 C   0  0  0  0  0  0  0  0  0  0  0  0
    5.3567   -1.5483    0.9256 C   0  0  0  0  0  0  0  0  0  0  0  0
    4.9639   -0.5514    1.1034 H   0  0  0  0  0  0  0  0  0  0  0  0
    5.4383   -2.0515    1.8858 H   0  0  0  0  0  0  0  0  0  0  0  0
    6.3389   -1.5003    0.4657 H   0  0  0  0  0  0  0  0  0  0  0  0
    4.8259   -3.7747   -0.0771 C   0  0  0  0  0  0  0  0  0  0  0  0
    5.0086   -4.1753    0.9165 H   0  0  0  0  0  0  0  0  0  0  0  0
    5.7465   -3.8225   -0.6520 H   0  0  0  0  0  0  0  0  0  0  0  0
    4.0693   -4.3899   -0.5524 H   0  0  0  0  0  0  0  0  0  0  0  0
    4.0410   -1.6026   -1.2990 C   0  0  0  0  0  0  0  0  0  0  0  0
    2.8425   -0.8707   -0.9944 O   0  0  0  0  0  0  0  0  0  0  0  0
    5.1221   -0.6372   -1.7809 C   0  0  0  0  0  0  0  0  0  0  0  0
    6.0677   -1.1602   -1.8946 H   0  0  0  0  0  0  0  0  0  0  0  0
    4.8330   -0.2259   -2.7449 H   0  0  0  0  0  0  0  0  0  0  0  0
    5.2382    0.1840   -1.0820 H   0  0  0  0  0  0  0  0  0  0  0  0
    3.6966   -2.5778   -2.4330 C   0  0  0  0  0  0  0  0  0  0  0  0
    2.9091   -3.2565   -2.1171 H   0  0  0  0  0  0  0  0  0  0  0  0
    3.3255   -2.0081   -3.2818 H   0  0  0  0  0  0  0  0  0  0  0  0
    4.5707   -3.1436   -2.7407 H   0  0  0  0  0  0  0  0  0  0  0  0
   -3.1648   -3.4263   -3.2040 H   0  0  0  0  0  0  0  0  0  0  0  0
   -4.7959    2.1689    0.4948 H   0  0  0  0  0  0  0  0  0  0  0  0
    0.2359   -1.6814    2.9603 C   0  0  0  0  0  0  0  0  0  0  0  0
   -1.0351   -1.8549    3.5223 C   0  0  0  0  0  0  0  0  0  0  0  0
    1.3255   -1.6451    3.8384 C   0  0  0  0  0  0  0  0  0  0  0  0
   -2.2603   -2.0337    2.7429 C   0  0  0  0  0  0  0  0  0  0  0  0
   -1.1876   -1.8599    4.9136 C   0  0  0  0  0  0  0  0  0  0  0  0
    1.1682   -1.6767    5.2113 C   0  0  0  0  0  0  0  0  0  0  0  0
    2.3183   -1.5836    3.4186 H   0  0  0  0  0  0  0  0  0  0  0  0
   -3.3674   -1.2646    3.0173 N   0  0  0  0  0  0  0  0  0  0  0  0
   -2.5879   -2.9582    1.7872 C   0  0  0  0  0  0  0  0  0  0  0  0
   -0.1030   -1.7632    5.7589 C   0  0  0  0  0  0  0  0  0  0  0  0
   -2.1805   -1.9748    5.3275 H   0  0  0  0  0  0  0  0  0  0  0  0
    2.0332   -1.6394    5.8588 H   0  0  0  0  0  0  0  0  0  0  0  0
   -4.3980   -1.6443    2.2117 C   0  0  0  0  0  0  0  0  0  0  0  0
   -3.3731   -0.4893    3.6582 H   0  0  0  0  0  0  0  0  0  0  0  0
   -3.9431   -2.7328    1.4239 C   0  0  0  0  0  0  0  0  0  0  0  0
   -1.9419   -3.7203    1.3983 H   0  0  0  0  0  0  0  0  0  0  0  0
   -0.2435   -1.7751    6.8299 H   0  0  0  0  0  0  0  0  0  0  0  0
   -5.6872   -1.1433    2.0948 C   0  0  0  0  0  0  0  0  0  0  0  0
   -4.8177   -3.3233    0.5114 C   0  0  0  0  0  0  0  0  0  0  0  0
   -6.5254   -1.7419    1.1775 C   0  0  0  0  0  0  0  0  0  0  0  0
   -6.0191   -0.3112    2.6984 H   0  0  0  0  0  0  0  0  0  0  0  0
   -6.0948   -2.8197    0.3980 C   0  0  0  0  0  0  0  0  0  0  0  0
   -4.4920   -4.1561   -0.0950 H   0  0  0  0  0  0  0  0  0  0  0  0
   -7.5346   -1.3748    1.0577 H   0  0  0  0  0  0  0  0  0  0  0  0
   -6.7842   -3.2620   -0.3074 H   0  0  0  0  0  0  0  0  0  0  0  0
  1  2  4  0  0  0  0
  2  3  4  0  0  0  0
  3  4  4  0  0  0  0
  4  5  4  0  0  0  0
  1  6  4  0  0  0  0
  5  6  4  0  0  0  0
  6  7  1  0  0  0  0
  5  8  1  0  0  0  0
  3  9  1  0  0  0  0
  2 10  1  0  0  0  0
 10 11  4  0  0  0  0
 11 12  4  0  0  0  0
 12 13  4  0  0  0  0
 13 14  4  0  0  0  0
 10 15  4  0  0  0  0
 14 15  4  0  0  0  0
 15 16  1  0  0  0  0
 13 17  1  0  0  0  0
 12 18  1  0  0  0  0
  1 19  1  0  0  0  0
 11 19  1  0  0  0  0
 19 20  1  0  0  0  0
 19 21  1  0  0  0  0
 21 22  1  0  0  0  0
 22 23  1  0  0  0  0
 23 24  1  0  0  0  0
 24 25  1  0  0  0  0
 24 26  1  0  0  0  0
 24 27  1  0  0  0  0
 23 28  1  0  0  0  0
 28 29  1  0  0  0  0
 28 30  1  0  0  0  0
 28 31  1  0  0  0  0
 23 32  1  0  0  0  0
 21 33  1  0  0  0  0
 32 33  1  0  0  0  0
 32 34  1  0  0  0  0
 34 35  1  0  0  0  0
 34 36  1  0  0  0  0
 34 37  1  0  0  0  0
 32 38  1  0  0  0  0
 38 39  1  0  0  0  0
 38 40  1  0  0  0  0
 38 41  1  0  0  0  0
 19 42  1  0  0  0  0
 42 43  1  0  0  0  0
 43 44  1  0  0  0  0
 44 45  1  0  0  0  0
 45 46  1  0  0  0  0
 45 47  1  0  0  0  0
 45 48  1  0  0  0  0
 44 49  1  0  0  0  0
 49 50  1  0  0  0  0
 49 51  1  0  0  0  0
 49 52  1  0  0  0  0
 44 53  1  0  0  0  0
 42 54  1  0  0  0  0
 53 54  1  0  0  0  0
 53 55  1  0  0  0  0
 55 56  1  0  0  0  0
 55 57  1  0  0  0  0
 55 58  1  0  0  0  0
 53 59  1  0  0  0  0
 59 60  1  0  0  0  0
 59 61  1  0  0  0  0
 59 62  1  0  0  0  0
 19 63  1  0  0  0  0
 63 64  1  0  0  0  0
 64 65  1  0  0  0  0
 65 66  1  0  0  0  0
 66 67  1  0  0  0  0
 66 68  1  0  0  0  0
 66 69  1  0  0  0  0
 65 70  1  0  0  0  0
 70 71  1  0  0  0  0
 70 72  1  0  0  0  0
 70 73  1  0  0  0  0
 65 74  1  0  0  0  0
 63 75  1  0  0  0  0
 74 75  1  0  0  0  0
 74 76  1  0  0  0  0
 76 77  1  0  0  0  0
 76 78  1  0  0  0  0
 76 79  1  0  0  0  0
 74 80  1  0  0  0  0
 80 81  1  0  0  0  0
 80 82  1  0  0  0  0
 80 83  1  0  0  0  0
  4 84  1  0  0  0  0
 14 85  1  0  0  0  0
 19 86  1  0  0  0  0
 20 86  1  0  0  0  0
 86 87  4  0  0  0  0
 86 88  4  0  0  0  0
 87 89  1  0  0  0  0
 87 90  4  0  0  0  0
 88 91  4  0  0  0  0
 88 92  1  0  0  0  0
 89 93  1  0  0  0  0
 89 94  2  0  0  0  0
 90 95  4  0  0  0  0
 91 95  4  0  0  0  0
 90 96  1  0  0  0  0
 91 97  1  0  0  0  0
 93 98  1  0  0  0  0
 93 99  1  0  0  0  0
 94100  4  0  0  0  0
 98100  4  0  0  0  0
 94101  1  0  0  0  0
 95102  1  0  0  0  0
 98103  4  0  0  0  0
100104  4  0  0  0  0
103105  4  0  0  0  0
103106  1  0  0  0  0
104107  2  0  0  0  0
105107  4  0  0  0  0
104108  1  0  0  0  0
105109  1  0  0  0  0
107110  1  0  0  0  0
M  END
