
  xtb     01142215023D
 xtb: 6.4.1 (1a32961)
101108  0     0  0            999 V2000
   -0.8469   -1.9974   -0.4693 N   0  0  0  0  0  0  0  0  0  0  0  0
   -2.1078   -1.5621   -0.6151 C   0  0  0  0  0  0  0  0  0  0  0  0
   -3.0021   -2.2182   -1.4687 C   0  0  0  0  0  0  0  0  0  0  0  0
   -2.5841   -3.3214   -2.1814 C   0  0  0  0  0  0  0  0  0  0  0  0
   -1.2702   -3.7507   -2.0317 C   0  0  0  0  0  0  0  0  0  0  0  0
   -0.4509   -3.0551   -1.1656 C   0  0  0  0  0  0  0  0  0  0  0  0
    0.5756   -3.3557   -1.0120 H   0  0  0  0  0  0  0  0  0  0  0  0
   -0.8993   -4.6105   -2.5652 H   0  0  0  0  0  0  0  0  0  0  0  0
   -4.0214   -1.8809   -1.5621 H   0  0  0  0  0  0  0  0  0  0  0  0
   -2.4933   -0.3956    0.1747 C   0  0  0  0  0  0  0  0  0  0  0  0
   -1.6105    0.0303    1.1003 N   0  0  0  0  0  0  0  0  0  0  0  0
   -1.9445    1.0580    1.8779 C   0  0  0  0  0  0  0  0  0  0  0  0
   -3.1426    1.7351    1.7733 C   0  0  0  0  0  0  0  0  0  0  0  0
   -4.0443    1.3371    0.7919 C   0  0  0  0  0  0  0  0  0  0  0  0
   -3.7136    0.2632   -0.0082 C   0  0  0  0  0  0  0  0  0  0  0  0
   -4.3968   -0.0561   -0.7775 H   0  0  0  0  0  0  0  0  0  0  0  0
   -3.3638    2.5548    2.4371 H   0  0  0  0  0  0  0  0  0  0  0  0
   -1.1994    1.3495    2.6025 H   0  0  0  0  0  0  0  0  0  0  0  0
    0.4215   -0.8165    0.9133 Ir  0  0  0  0  0  0  0  0  0  0  0  0
    0.8726   -2.2303    1.5405 H   0  0  0  0  0  0  0  0  0  0  0  0
    0.4593    0.6487   -0.5775 B   0  0  0  0  0  0  0  0  0  0  0  0
   -0.2562    0.4525   -1.7417 O   0  0  0  0  0  0  0  0  0  0  0  0
   -0.2522    1.6510   -2.5286 C   0  0  0  0  0  0  0  0  0  0  0  0
   -0.0874    1.2952   -4.0038 C   0  0  0  0  0  0  0  0  0  0  0  0
    0.7710    0.6482   -4.1494 H   0  0  0  0  0  0  0  0  0  0  0  0
    0.0305    2.1995   -4.5949 H   0  0  0  0  0  0  0  0  0  0  0  0
   -0.9738    0.7658   -4.3445 H   0  0  0  0  0  0  0  0  0  0  0  0
   -1.6135    2.3286   -2.3187 C   0  0  0  0  0  0  0  0  0  0  0  0
   -1.7009    3.2282   -2.9203 H   0  0  0  0  0  0  0  0  0  0  0  0
   -2.3972    1.6310   -2.6073 H   0  0  0  0  0  0  0  0  0  0  0  0
   -1.7512    2.5733   -1.2675 H   0  0  0  0  0  0  0  0  0  0  0  0
    0.9321    2.4624   -1.9071 C   0  0  0  0  0  0  0  0  0  0  0  0
    1.0437    1.8904   -0.5938 O   0  0  0  0  0  0  0  0  0  0  0  0
    2.2653    2.1934   -2.6144 C   0  0  0  0  0  0  0  0  0  0  0  0
    2.4570    1.1233   -2.6166 H   0  0  0  0  0  0  0  0  0  0  0  0
    2.2636    2.5850   -3.6272 H   0  0  0  0  0  0  0  0  0  0  0  0
    3.0612    2.6729   -2.0498 H   0  0  0  0  0  0  0  0  0  0  0  0
    0.7005    3.9681   -1.8015 C   0  0  0  0  0  0  0  0  0  0  0  0
   -0.1313    4.1929   -1.1413 H   0  0  0  0  0  0  0  0  0  0  0  0
    1.5929    4.4376   -1.3949 H   0  0  0  0  0  0  0  0  0  0  0  0
    0.5046    4.3839   -2.7863 H   0  0  0  0  0  0  0  0  0  0  0  0
    1.5246    0.6558    1.9043 B   0  0  0  0  0  0  0  0  0  0  0  0
    2.8868    0.7827    1.9523 O   0  0  0  0  0  0  0  0  0  0  0  0
    3.2533    2.0465    2.5275 C   0  0  0  0  0  0  0  0  0  0  0  0
    4.4408    1.8526    3.4693 C   0  0  0  0  0  0  0  0  0  0  0  0
    4.2290    1.0951    4.2160 H   0  0  0  0  0  0  0  0  0  0  0  0
    5.2996    1.5242    2.8900 H   0  0  0  0  0  0  0  0  0  0  0  0
    4.6859    2.7902    3.9603 H   0  0  0  0  0  0  0  0  0  0  0  0
    3.6695    2.9493    1.3602 C   0  0  0  0  0  0  0  0  0  0  0  0
    3.9274    3.9478    1.6992 H   0  0  0  0  0  0  0  0  0  0  0  0
    4.5357    2.5074    0.8734 H   0  0  0  0  0  0  0  0  0  0  0  0
    2.8594    2.9863    0.6369 H   0  0  0  0  0  0  0  0  0  0  0  0
    1.9252    2.5114    3.2225 C   0  0  0  0  0  0  0  0  0  0  0  0
    0.9308    1.6784    2.6054 O   0  0  0  0  0  0  0  0  0  0  0  0
    1.5586    3.9760    2.9891 C   0  0  0  0  0  0  0  0  0  0  0  0
    1.4021    4.1654    1.9325 H   0  0  0  0  0  0  0  0  0  0  0  0
    0.6342    4.1984    3.5163 H   0  0  0  0  0  0  0  0  0  0  0  0
    2.3427    4.6253    3.3681 H   0  0  0  0  0  0  0  0  0  0  0  0
    1.8903    2.2152    4.7269 C   0  0  0  0  0  0  0  0  0  0  0  0
    2.0803    1.1603    4.9053 H   0  0  0  0  0  0  0  0  0  0  0  0
    2.6167    2.8200    5.2606 H   0  0  0  0  0  0  0  0  0  0  0  0
    0.8965    2.4430    5.1053 H   0  0  0  0  0  0  0  0  0  0  0  0
    2.2782   -1.3309    0.1741 B   0  0  0  0  0  0  0  0  0  0  0  0
    3.1918   -2.1197    0.8335 O   0  0  0  0  0  0  0  0  0  0  0  0
    4.4282   -2.1650    0.1061 C   0  0  0  0  0  0  0  0  0  0  0  0
    5.3880   -1.2025    0.8126 C   0  0  0  0  0  0  0  0  0  0  0  0
    4.9227   -0.2231    0.8733 H   0  0  0  0  0  0  0  0  0  0  0  0
    5.5469   -1.5591    1.8269 H   0  0  0  0  0  0  0  0  0  0  0  0
    6.3440   -1.1463    0.3019 H   0  0  0  0  0  0  0  0  0  0  0  0
    4.9984   -3.5818    0.1594 C   0  0  0  0  0  0  0  0  0  0  0  0
    5.2502   -3.8192    1.1894 H   0  0  0  0  0  0  0  0  0  0  0  0
    5.8970   -3.6458   -0.4474 H   0  0  0  0  0  0  0  0  0  0  0  0
    4.2747   -4.3131   -0.1847 H   0  0  0  0  0  0  0  0  0  0  0  0
    4.0054   -1.6724   -1.3226 C   0  0  0  0  0  0  0  0  0  0  0  0
    2.7520   -1.0096   -1.0749 O   0  0  0  0  0  0  0  0  0  0  0  0
    4.9742   -0.6881   -1.9743 C   0  0  0  0  0  0  0  0  0  0  0  0
    5.9590   -1.1370   -2.0675 H   0  0  0  0  0  0  0  0  0  0  0  0
    4.6104   -0.4338   -2.9665 H   0  0  0  0  0  0  0  0  0  0  0  0
    5.0390    0.2243   -1.3919 H   0  0  0  0  0  0  0  0  0  0  0  0
    3.7231   -2.8211   -2.2996 C   0  0  0  0  0  0  0  0  0  0  0  0
    3.0190   -3.5239   -1.8627 H   0  0  0  0  0  0  0  0  0  0  0  0
    3.2724   -2.4092   -3.1992 H   0  0  0  0  0  0  0  0  0  0  0  0
    4.6392   -3.3388   -2.5669 H   0  0  0  0  0  0  0  0  0  0  0  0
   -3.2660   -3.8419   -2.8365 H   0  0  0  0  0  0  0  0  0  0  0  0
   -4.9825    1.8537    0.6577 H   0  0  0  0  0  0  0  0  0  0  0  0
    0.2359   -1.6814    2.9603 C   0  0  0  0  0  0  0  0  0  0  0  0
   -1.0412   -1.9931    3.4595 C   0  0  0  0  0  0  0  0  0  0  0  0
    1.2587   -1.5388    3.9123 C   0  0  0  0  0  0  0  0  0  0  0  0
   -2.1928   -2.3655    2.6085 C   0  0  0  0  0  0  0  0  0  0  0  0
   -1.1919   -2.0345    4.8488 C   0  0  0  0  0  0  0  0  0  0  0  0
    0.9726   -1.6013    5.2569 C   0  0  0  0  0  0  0  0  0  0  0  0
    2.2672   -1.3719    3.5711 H   0  0  0  0  0  0  0  0  0  0  0  0
   -2.1429   -3.1673    1.7005 O   0  0  0  0  0  0  0  0  0  0  0  0
   -3.3175   -1.7575    2.9986 O   0  0  0  0  0  0  0  0  0  0  0  0
   -2.4011   -2.3507    5.3730 F   0  0  0  0  0  0  0  0  0  0  0  0
   -0.2523   -1.8410    5.7319 N   0  0  0  0  0  0  0  0  0  0  0  0
    1.7292   -1.4686    6.0173 H   0  0  0  0  0  0  0  0  0  0  0  0
   -4.5412   -2.1275    2.3683 C   0  0  0  0  0  0  0  0  0  0  0  0
   -5.0951   -2.7828    3.0419 H   0  0  0  0  0  0  0  0  0  0  0  0
   -4.3347   -2.6452    1.4299 H   0  0  0  0  0  0  0  0  0  0  0  0
   -5.0986   -1.2100    2.1915 H   0  0  0  0  0  0  0  0  0  0  0  0
  1  2  4  0  0  0  0
  2  3  4  0  0  0  0
  3  4  4  0  0  0  0
  4  5  4  0  0  0  0
  1  6  4  0  0  0  0
  5  6  4  0  0  0  0
  6  7  1  0  0  0  0
  5  8  1  0  0  0  0
  3  9  1  0  0  0  0
  2 10  1  0  0  0  0
 10 11  4  0  0  0  0
 11 12  4  0  0  0  0
 12 13  4  0  0  0  0
 13 14  4  0  0  0  0
 10 15  4  0  0  0  0
 14 15  4  0  0  0  0
 15 16  1  0  0  0  0
 13 17  1  0  0  0  0
 12 18  1  0  0  0  0
  1 19  1  0  0  0  0
 11 19  1  0  0  0  0
 19 20  1  0  0  0  0
 19 21  1  0  0  0  0
 21 22  1  0  0  0  0
 22 23  1  0  0  0  0
 23 24  1  0  0  0  0
 24 25  1  0  0  0  0
 24 26  1  0  0  0  0
 24 27  1  0  0  0  0
 23 28  1  0  0  0  0
 28 29  1  0  0  0  0
 28 30  1  0  0  0  0
 28 31  1  0  0  0  0
 23 32  1  0  0  0  0
 21 33  1  0  0  0  0
 32 33  1  0  0  0  0
 32 34  1  0  0  0  0
 34 35  1  0  0  0  0
 34 36  1  0  0  0  0
 34 37  1  0  0  0  0
 32 38  1  0  0  0  0
 38 39  1  0  0  0  0
 38 40  1  0  0  0  0
 38 41  1  0  0  0  0
 19 42  1  0  0  0  0
 42 43  1  0  0  0  0
 43 44  1  0  0  0  0
 44 45  1  0  0  0  0
 45 46  1  0  0  0  0
 45 47  1  0  0  0  0
 45 48  1  0  0  0  0
 44 49  1  0  0  0  0
 49 50  1  0  0  0  0
 49 51  1  0  0  0  0
 49 52  1  0  0  0  0
 44 53  1  0  0  0  0
 42 54  1  0  0  0  0
 53 54  1  0  0  0  0
 53 55  1  0  0  0  0
 55 56  1  0  0  0  0
 55 57  1  0  0  0  0
 55 58  1  0  0  0  0
 53 59  1  0  0  0  0
 59 60  1  0  0  0  0
 59 61  1  0  0  0  0
 59 62  1  0  0  0  0
 19 63  1  0  0  0  0
 63 64  1  0  0  0  0
 64 65  1  0  0  0  0
 65 66  1  0  0  0  0
 66 67  1  0  0  0  0
 66 68  1  0  0  0  0
 66 69  1  0  0  0  0
 65 70  1  0  0  0  0
 70 71  1  0  0  0  0
 70 72  1  0  0  0  0
 70 73  1  0  0  0  0
 65 74  1  0  0  0  0
 63 75  1  0  0  0  0
 74 75  1  0  0  0  0
 74 76  1  0  0  0  0
 76 77  1  0  0  0  0
 76 78  1  0  0  0  0
 76 79  1  0  0  0  0
 74 80  1  0  0  0  0
 80 81  1  0  0  0  0
 80 82  1  0  0  0  0
 80 83  1  0  0  0  0
  4 84  1  0  0  0  0
 14 85  1  0  0  0  0
 19 86  1  0  0  0  0
 20 86  1  0  0  0  0
 86 87  4  0  0  0  0
 86 88  4  0  0  0  0
 87 89  1  0  0  0  0
 87 90  4  0  0  0  0
 88 91  4  0  0  0  0
 88 92  1  0  0  0  0
 89 93  2  0  0  0  0
 89 94  1  0  0  0  0
 90 95  1  0  0  0  0
 90 96  4  0  0  0  0
 91 96  4  0  0  0  0
 91 97  1  0  0  0  0
 94 98  1  0  0  0  0
 98 99  1  0  0  0  0
 98100  1  0  0  0  0
 98101  1  0  0  0  0
M  END
