15

C         -0.97073       -1.47745        0.00854
C         -2.13684       -0.71032        0.01173
C         -2.03345        0.67572        0.01137
N         -0.88029        1.38322        0.01048
C          0.21155        0.59601        0.01013
N          1.49899        1.05749        0.01452
C          2.37282       -0.00065        0.01605
C          1.62809       -1.16227        0.00802
C          0.25510       -0.79392        0.00843
H         -1.01222       -2.56116        0.00860
H         -3.11101       -1.18699        0.01475
H         -2.93371        1.28657        0.01268
H          1.73934        2.03776        0.01847
H          3.44169        0.16458        0.02248
H          2.02828       -2.16755        0.00612
