
  xtb     01142215013D
 xtb: 6.4.1 (1a32961)
 11 11  0     0  0            999 V2000
    1.1874    1.5240    0.0596 C   0  0  0  0  0  0  0  0  0  0  0  0
    0.0425    0.7406    0.0377 C   0  0  0  0  0  0  0  0  0  0  0  0
   -1.5255    1.4580    0.0922 Cl  0  0  0  0  0  0  0  0  0  0  0  0
    0.1999   -0.6456   -0.0295 C   0  0  0  0  0  0  0  0  0  0  0  0
   -1.1781   -1.6820   -0.0657 Cl  0  0  0  0  0  0  0  0  0  0  0  0
    1.3735   -1.2318   -0.0721 N   0  0  0  0  0  0  0  0  0  0  0  0
    2.4659   -0.4834   -0.0487 C   0  0  0  0  0  0  0  0  0  0  0  0
    2.4259    0.9000    0.0170 C   0  0  0  0  0  0  0  0  0  0  0  0
    1.0995    2.5975    0.1120 H   0  0  0  0  0  0  0  0  0  0  0  0
    3.3955   -1.0314   -0.0843 H   0  0  0  0  0  0  0  0  0  0  0  0
    3.3340    1.4792    0.0350 H   0  0  0  0  0  0  0  0  0  0  0  0
  1  2  4  0  0  0  0
  2  3  1  0  0  0  0
  2  4  4  0  0  0  0
  4  5  1  0  0  0  0
  4  6  4  0  0  0  0
  6  7  4  0  0  0  0
  1  8  4  0  0  0  0
  7  8  4  0  0  0  0
  1  9  1  0  0  0  0
  7 10  1  0  0  0  0
  8 11  1  0  0  0  0
M  END
