
  xtb     01142215323D
 xtb: 6.4.1 (1a32961)
 97104  0     0  0            999 V2000
   -0.8989   -2.0424   -0.3737 N   0  0  0  0  0  0  0  0  0  0  0  0
   -2.1469   -1.5758   -0.5633 C   0  0  0  0  0  0  0  0  0  0  0  0
   -3.0051   -2.1759   -1.4936 C   0  0  0  0  0  0  0  0  0  0  0  0
   -2.5694   -3.2514   -2.2361 C   0  0  0  0  0  0  0  0  0  0  0  0
   -1.2724   -3.7168   -2.0362 C   0  0  0  0  0  0  0  0  0  0  0  0
   -0.4878   -3.0800   -1.0978 C   0  0  0  0  0  0  0  0  0  0  0  0
    0.5228   -3.4102   -0.9041 H   0  0  0  0  0  0  0  0  0  0  0  0
   -0.8884   -4.5549   -2.5945 H   0  0  0  0  0  0  0  0  0  0  0  0
   -4.0061   -1.8044   -1.6375 H   0  0  0  0  0  0  0  0  0  0  0  0
   -2.5370   -0.4221    0.2392 C   0  0  0  0  0  0  0  0  0  0  0  0
   -1.6099    0.0628    1.0916 N   0  0  0  0  0  0  0  0  0  0  0  0
   -1.9229    1.1144    1.8448 C   0  0  0  0  0  0  0  0  0  0  0  0
   -3.1496    1.7455    1.8028 C   0  0  0  0  0  0  0  0  0  0  0  0
   -4.1135    1.2633    0.9222 C   0  0  0  0  0  0  0  0  0  0  0  0
   -3.7994    0.1749    0.1370 C   0  0  0  0  0  0  0  0  0  0  0  0
   -4.5337   -0.2098   -0.5509 H   0  0  0  0  0  0  0  0  0  0  0  0
   -3.3504    2.5889    2.4432 H   0  0  0  0  0  0  0  0  0  0  0  0
   -1.1395    1.4597    2.5019 H   0  0  0  0  0  0  0  0  0  0  0  0
    0.4215   -0.8165    0.9133 Ir  0  0  0  0  0  0  0  0  0  0  0  0
    0.8726   -2.2303    1.5405 H   0  0  0  0  0  0  0  0  0  0  0  0
    0.4136    0.5939   -0.6246 B   0  0  0  0  0  0  0  0  0  0  0  0
   -0.2736    0.3313   -1.7946 O   0  0  0  0  0  0  0  0  0  0  0  0
   -0.3465    1.5165   -2.5952 C   0  0  0  0  0  0  0  0  0  0  0  0
   -0.1517    1.1556   -4.0654 C   0  0  0  0  0  0  0  0  0  0  0  0
    0.7465    0.5617   -4.1990 H   0  0  0  0  0  0  0  0  0  0  0  0
   -0.0868    2.0587   -4.6666 H   0  0  0  0  0  0  0  0  0  0  0  0
   -1.0016    0.5681   -4.4049 H   0  0  0  0  0  0  0  0  0  0  0  0
   -1.7510    2.1053   -2.3995 C   0  0  0  0  0  0  0  0  0  0  0  0
   -1.8966    2.9868   -3.0167 H   0  0  0  0  0  0  0  0  0  0  0  0
   -2.4865    1.3527   -2.6772 H   0  0  0  0  0  0  0  0  0  0  0  0
   -1.9089    2.3600   -1.3532 H   0  0  0  0  0  0  0  0  0  0  0  0
    0.7762    2.4141   -1.9785 C   0  0  0  0  0  0  0  0  0  0  0  0
    0.9115    1.8748   -0.6561 O   0  0  0  0  0  0  0  0  0  0  0  0
    2.1300    2.2218   -2.6725 C   0  0  0  0  0  0  0  0  0  0  0  0
    2.3936    1.1672   -2.6522 H   0  0  0  0  0  0  0  0  0  0  0  0
    2.1098    2.5926   -3.6932 H   0  0  0  0  0  0  0  0  0  0  0  0
    2.8882    2.7650   -2.1132 H   0  0  0  0  0  0  0  0  0  0  0  0
    0.4468    3.9035   -1.9039 C   0  0  0  0  0  0  0  0  0  0  0  0
   -0.4044    4.0875   -1.2557 H   0  0  0  0  0  0  0  0  0  0  0  0
    1.3031    4.4373   -1.4985 H   0  0  0  0  0  0  0  0  0  0  0  0
    0.2345    4.2880   -2.8982 H   0  0  0  0  0  0  0  0  0  0  0  0
    1.5386    0.6792    1.8463 B   0  0  0  0  0  0  0  0  0  0  0  0
    2.9039    0.8383    1.8491 O   0  0  0  0  0  0  0  0  0  0  0  0
    3.2564    2.1170    2.3971 C   0  0  0  0  0  0  0  0  0  0  0  0
    4.4900    1.9724    3.2872 C   0  0  0  0  0  0  0  0  0  0  0  0
    4.3399    1.2127    4.0465 H   0  0  0  0  0  0  0  0  0  0  0  0
    5.3366    1.6741    2.6743 H   0  0  0  0  0  0  0  0  0  0  0  0
    4.7196    2.9223    3.7621 H   0  0  0  0  0  0  0  0  0  0  0  0
    3.5883    3.0240    1.2064 C   0  0  0  0  0  0  0  0  0  0  0  0
    3.8382    4.0306    1.5277 H   0  0  0  0  0  0  0  0  0  0  0  0
    4.4384    2.6015    0.6753 H   0  0  0  0  0  0  0  0  0  0  0  0
    2.7410    3.0376    0.5259 H   0  0  0  0  0  0  0  0  0  0  0  0
    1.9477    2.5451    3.1476 C   0  0  0  0  0  0  0  0  0  0  0  0
    0.9511    1.6961    2.5615 O   0  0  0  0  0  0  0  0  0  0  0  0
    1.5415    4.0042    2.9481 C   0  0  0  0  0  0  0  0  0  0  0  0
    1.3326    4.2033    1.9022 H   0  0  0  0  0  0  0  0  0  0  0  0
    0.6383    4.2033    3.5199 H   0  0  0  0  0  0  0  0  0  0  0  0
    2.3294    4.6653    3.2981 H   0  0  0  0  0  0  0  0  0  0  0  0
    1.9784    2.2299    4.6484 C   0  0  0  0  0  0  0  0  0  0  0  0
    2.2034    1.1787    4.8038 H   0  0  0  0  0  0  0  0  0  0  0  0
    2.7087    2.8463    5.1631 H   0  0  0  0  0  0  0  0  0  0  0  0
    0.9941    2.4277    5.0668 H   0  0  0  0  0  0  0  0  0  0  0  0
    2.2782   -1.3309    0.1741 B   0  0  0  0  0  0  0  0  0  0  0  0
    3.1647   -2.2021    0.7687 O   0  0  0  0  0  0  0  0  0  0  0  0
    4.4216   -2.1830    0.0783 C   0  0  0  0  0  0  0  0  0  0  0  0
    5.3664   -1.3118    0.9127 C   0  0  0  0  0  0  0  0  0  0  0  0
    4.9104   -0.3368    1.0574 H   0  0  0  0  0  0  0  0  0  0  0  0
    5.4890   -1.7731    1.8892 H   0  0  0  0  0  0  0  0  0  0  0  0
    6.3396   -1.2154    0.4419 H   0  0  0  0  0  0  0  0  0  0  0  0
    4.9808   -3.6029   -0.0043 C   0  0  0  0  0  0  0  0  0  0  0  0
    5.2013   -3.9526    1.0006 H   0  0  0  0  0  0  0  0  0  0  0  0
    5.8972   -3.6096   -0.5875 H   0  0  0  0  0  0  0  0  0  0  0  0
    4.2640   -4.2855   -0.4480 H   0  0  0  0  0  0  0  0  0  0  0  0
    4.0477   -1.5356   -1.3013 C   0  0  0  0  0  0  0  0  0  0  0  0
    2.7924   -0.8934   -1.0235 O   0  0  0  0  0  0  0  0  0  0  0  0
    5.0433   -0.4951   -1.8103 C   0  0  0  0  0  0  0  0  0  0  0  0
    6.0303   -0.9370   -1.9150 H   0  0  0  0  0  0  0  0  0  0  0  0
    4.7171   -0.1340   -2.7824 H   0  0  0  0  0  0  0  0  0  0  0  0
    5.0879    0.3499   -1.1321 H   0  0  0  0  0  0  0  0  0  0  0  0
    3.7924   -2.5697   -2.4058 C   0  0  0  0  0  0  0  0  0  0  0  0
    3.0652   -3.3049   -2.0726 H   0  0  0  0  0  0  0  0  0  0  0  0
    3.3792   -2.0586   -3.2720 H   0  0  0  0  0  0  0  0  0  0  0  0
    4.7131   -3.0674   -2.6943 H   0  0  0  0  0  0  0  0  0  0  0  0
   -3.2213   -3.7203   -2.9573 H   0  0  0  0  0  0  0  0  0  0  0  0
   -5.0853    1.7283    0.8542 H   0  0  0  0  0  0  0  0  0  0  0  0
    0.2359   -1.6814    2.9603 C   0  0  0  0  0  0  0  0  0  0  0  0
   -1.0948   -1.8904    3.3832 C   0  0  0  0  0  0  0  0  0  0  0  0
    1.1156   -1.7399    4.0091 C   0  0  0  0  0  0  0  0  0  0  0  0
   -1.2339   -2.0295    4.7455 C   0  0  0  0  0  0  0  0  0  0  0  0
   -1.9486   -1.9489    2.7302 H   0  0  0  0  0  0  0  0  0  0  0  0
    0.3090   -1.9534    5.5426 S   0  0  0  0  0  0  0  0  0  0  0  0
    2.5999   -1.7342    3.9878 C   0  0  0  0  0  0  0  0  0  0  0  0
   -2.4136   -2.2144    5.4534 C   0  0  0  0  0  0  0  0  0  0  0  0
    2.9512   -1.1295    3.1566 H   0  0  0  0  0  0  0  0  0  0  0  0
    2.9658   -2.7500    3.8360 H   0  0  0  0  0  0  0  0  0  0  0  0
    2.9996   -1.3667    4.9307 H   0  0  0  0  0  0  0  0  0  0  0  0
   -3.4043   -2.3670    6.0219 N   0  0  0  0  0  0  0  0  0  0  0  0
  1  2  4  0  0  0  0
  2  3  4  0  0  0  0
  3  4  4  0  0  0  0
  4  5  4  0  0  0  0
  1  6  4  0  0  0  0
  5  6  4  0  0  0  0
  6  7  1  0  0  0  0
  5  8  1  0  0  0  0
  3  9  1  0  0  0  0
  2 10  1  0  0  0  0
 10 11  4  0  0  0  0
 11 12  4  0  0  0  0
 12 13  4  0  0  0  0
 13 14  4  0  0  0  0
 10 15  4  0  0  0  0
 14 15  4  0  0  0  0
 15 16  1  0  0  0  0
 13 17  1  0  0  0  0
 12 18  1  0  0  0  0
  1 19  1  0  0  0  0
 11 19  1  0  0  0  0
 19 20  1  0  0  0  0
 19 21  1  0  0  0  0
 21 22  1  0  0  0  0
 22 23  1  0  0  0  0
 23 24  1  0  0  0  0
 24 25  1  0  0  0  0
 24 26  1  0  0  0  0
 24 27  1  0  0  0  0
 23 28  1  0  0  0  0
 28 29  1  0  0  0  0
 28 30  1  0  0  0  0
 28 31  1  0  0  0  0
 23 32  1  0  0  0  0
 21 33  1  0  0  0  0
 32 33  1  0  0  0  0
 32 34  1  0  0  0  0
 34 35  1  0  0  0  0
 34 36  1  0  0  0  0
 34 37  1  0  0  0  0
 32 38  1  0  0  0  0
 38 39  1  0  0  0  0
 38 40  1  0  0  0  0
 38 41  1  0  0  0  0
 19 42  1  0  0  0  0
 42 43  1  0  0  0  0
 43 44  1  0  0  0  0
 44 45  1  0  0  0  0
 45 46  1  0  0  0  0
 45 47  1  0  0  0  0
 45 48  1  0  0  0  0
 44 49  1  0  0  0  0
 49 50  1  0  0  0  0
 49 51  1  0  0  0  0
 49 52  1  0  0  0  0
 44 53  1  0  0  0  0
 42 54  1  0  0  0  0
 53 54  1  0  0  0  0
 53 55  1  0  0  0  0
 55 56  1  0  0  0  0
 55 57  1  0  0  0  0
 55 58  1  0  0  0  0
 53 59  1  0  0  0  0
 59 60  1  0  0  0  0
 59 61  1  0  0  0  0
 59 62  1  0  0  0  0
 19 63  1  0  0  0  0
 63 64  1  0  0  0  0
 64 65  1  0  0  0  0
 65 66  1  0  0  0  0
 66 67  1  0  0  0  0
 66 68  1  0  0  0  0
 66 69  1  0  0  0  0
 65 70  1  0  0  0  0
 70 71  1  0  0  0  0
 70 72  1  0  0  0  0
 70 73  1  0  0  0  0
 65 74  1  0  0  0  0
 63 75  1  0  0  0  0
 74 75  1  0  0  0  0
 74 76  1  0  0  0  0
 76 77  1  0  0  0  0
 76 78  1  0  0  0  0
 76 79  1  0  0  0  0
 74 80  1  0  0  0  0
 80 81  1  0  0  0  0
 80 82  1  0  0  0  0
 80 83  1  0  0  0  0
  4 84  1  0  0  0  0
 14 85  1  0  0  0  0
 19 86  1  0  0  0  0
 20 86  1  0  0  0  0
 86 87  4  0  0  0  0
 86 88  2  0  0  0  0
 87 89  4  0  0  0  0
 87 90  1  0  0  0  0
 88 91  1  0  0  0  0
 89 91  1  0  0  0  0
 88 92  1  0  0  0  0
 89 93  1  0  0  0  0
 92 94  1  0  0  0  0
 92 95  1  0  0  0  0
 92 96  1  0  0  0  0
 93 97  3  0  0  0  0
M  END
