   22
Created with kallisto
C      1.2548   -1.4727   -0.0100
C      2.5936   -1.0463   -0.0029
C      0.1971   -0.5762   -0.0076
C      2.8653    0.3263    0.0084
C      3.7048   -2.0636   -0.0046
N     -1.0584   -1.0493   -0.0048
C      0.4864    0.8038   -0.0043
C      1.8186    1.2472    0.0059
H      3.8937    0.6856    0.0193
F      4.9480   -1.5051   -0.0009
F      3.6643   -2.8843    1.0806
F      3.6678   -2.8776   -1.0948
C     -2.0850   -0.1666   -0.0011
C     -0.5903    1.6976   -0.0088
H      2.0469    2.3110    0.0137
C     -3.4714   -0.7355    0.0216
C     -1.8916    1.2086   -0.0087
H     -0.4230    2.7713   -0.0104
H     -3.4422   -1.8298    0.0266
H     -4.0283   -0.4128   -0.8634
H     -3.9989   -0.4055    0.9221
H     -2.7361    1.8904   -0.0095
