
  xtb     01142215113D
 xtb: 6.4.1 (1a32961)
137144  0     0  0            999 V2000
   -0.7971   -2.2121   -0.3360 N   0  0  0  0  0  0  0  0  0  0  0  0
   -2.0684   -1.8471   -0.5862 C   0  0  0  0  0  0  0  0  0  0  0  0
   -2.8917   -2.6231   -1.4142 C   0  0  0  0  0  0  0  0  0  0  0  0
   -2.3945   -3.7669   -1.9972 C   0  0  0  0  0  0  0  0  0  0  0  0
   -1.0719   -4.1222   -1.7416 C   0  0  0  0  0  0  0  0  0  0  0  0
   -0.3255   -3.3175   -0.9055 C   0  0  0  0  0  0  0  0  0  0  0  0
    0.7016   -3.5589   -0.6734 H   0  0  0  0  0  0  0  0  0  0  0  0
   -0.6391   -5.0087   -2.1763 H   0  0  0  0  0  0  0  0  0  0  0  0
   -3.9154   -2.3381   -1.5938 H   0  0  0  0  0  0  0  0  0  0  0  0
   -2.5206   -0.6163    0.0444 C   0  0  0  0  0  0  0  0  0  0  0  0
   -1.6574   -0.0173    0.8957 N   0  0  0  0  0  0  0  0  0  0  0  0
   -2.0422    1.1103    1.4945 C   0  0  0  0  0  0  0  0  0  0  0  0
   -3.2695    1.7053    1.2920 C   0  0  0  0  0  0  0  0  0  0  0  0
   -4.1617    1.1092    0.4029 C   0  0  0  0  0  0  0  0  0  0  0  0
   -3.7761   -0.0548   -0.2244 C   0  0  0  0  0  0  0  0  0  0  0  0
   -4.4449   -0.5257   -0.9259 H   0  0  0  0  0  0  0  0  0  0  0  0
   -3.5289    2.6108    1.8163 H   0  0  0  0  0  0  0  0  0  0  0  0
   -1.3139    1.5465    2.1594 H   0  0  0  0  0  0  0  0  0  0  0  0
    0.4215   -0.8165    0.9133 Ir  0  0  0  0  0  0  0  0  0  0  0  0
    0.8726   -2.2303    1.5405 H   0  0  0  0  0  0  0  0  0  0  0  0
    0.4223    0.4442   -0.7520 B   0  0  0  0  0  0  0  0  0  0  0  0
    0.0982   -0.0558   -2.0038 O   0  0  0  0  0  0  0  0  0  0  0  0
   -0.1732    1.0110   -2.9177 C   0  0  0  0  0  0  0  0  0  0  0  0
    0.4820    0.7048   -4.2643 C   0  0  0  0  0  0  0  0  0  0  0  0
    1.5427    0.5102   -4.1466 H   0  0  0  0  0  0  0  0  0  0  0  0
    0.3365    1.5345   -4.9511 H   0  0  0  0  0  0  0  0  0  0  0  0
    0.0205   -0.1852   -4.6860 H   0  0  0  0  0  0  0  0  0  0  0  0
   -1.6958    1.0620   -3.1134 C   0  0  0  0  0  0  0  0  0  0  0  0
   -1.9756    1.8351   -3.8230 H   0  0  0  0  0  0  0  0  0  0  0  0
   -2.0301    0.0972   -3.4906 H   0  0  0  0  0  0  0  0  0  0  0  0
   -2.1938    1.2401   -2.1628 H   0  0  0  0  0  0  0  0  0  0  0  0
    0.3948    2.2690   -2.1720 C   0  0  0  0  0  0  0  0  0  0  0  0
    0.5166    1.8142   -0.8200 O   0  0  0  0  0  0  0  0  0  0  0  0
    1.7994    2.6645   -2.6453 C   0  0  0  0  0  0  0  0  0  0  0  0
    2.4769    1.8245   -2.5141 H   0  0  0  0  0  0  0  0  0  0  0  0
    1.7913    2.9829   -3.6837 H   0  0  0  0  0  0  0  0  0  0  0  0
    2.1598    3.4849   -2.0285 H   0  0  0  0  0  0  0  0  0  0  0  0
   -0.5073    3.5034   -2.2087 C   0  0  0  0  0  0  0  0  0  0  0  0
   -1.4620    3.3075   -1.7303 H   0  0  0  0  0  0  0  0  0  0  0  0
   -0.0211    4.3106   -1.6661 H   0  0  0  0  0  0  0  0  0  0  0  0
   -0.6715    3.8193   -3.2356 H   0  0  0  0  0  0  0  0  0  0  0  0
    1.4003    0.7514    1.8801 B   0  0  0  0  0  0  0  0  0  0  0  0
    2.7396    0.8941    2.1844 O   0  0  0  0  0  0  0  0  0  0  0  0
    3.0378    2.2906    2.3189 C   0  0  0  0  0  0  0  0  0  0  0  0
    4.1405    2.5099    3.3504 C   0  0  0  0  0  0  0  0  0  0  0  0
    3.8739    2.0837    4.3105 H   0  0  0  0  0  0  0  0  0  0  0  0
    5.0496    2.0294    2.9995 H   0  0  0  0  0  0  0  0  0  0  0  0
    4.3281    3.5743    3.4670 H   0  0  0  0  0  0  0  0  0  0  0  0
    3.5313    2.7568    0.9443 C   0  0  0  0  0  0  0  0  0  0  0  0
    3.8136    3.8058    0.9517 H   0  0  0  0  0  0  0  0  0  0  0  0
    4.3901    2.1512    0.6680 H   0  0  0  0  0  0  0  0  0  0  0  0
    2.7518    2.5706    0.2114 H   0  0  0  0  0  0  0  0  0  0  0  0
    1.6465    2.9039    2.6903 C   0  0  0  0  0  0  0  0  0  0  0  0
    0.7368    1.9196    2.1882 O   0  0  0  0  0  0  0  0  0  0  0  0
    1.3421    4.2479    2.0311 C   0  0  0  0  0  0  0  0  0  0  0  0
    1.2578    4.1228    0.9569 H   0  0  0  0  0  0  0  0  0  0  0  0
    0.3931    4.6246    2.4047 H   0  0  0  0  0  0  0  0  0  0  0  0
    2.1219    4.9689    2.2609 H   0  0  0  0  0  0  0  0  0  0  0  0
    1.4162    3.0130    4.2025 C   0  0  0  0  0  0  0  0  0  0  0  0
    1.5909    2.0502    4.6744 H   0  0  0  0  0  0  0  0  0  0  0  0
    2.0628    3.7668    4.6416 H   0  0  0  0  0  0  0  0  0  0  0  0
    0.3800    3.2912    4.3806 H   0  0  0  0  0  0  0  0  0  0  0  0
    2.2782   -1.3309    0.1741 B   0  0  0  0  0  0  0  0  0  0  0  0
    2.6578   -2.6395   -0.0572 O   0  0  0  0  0  0  0  0  0  0  0  0
    3.9915   -2.6882   -0.5746 C   0  0  0  0  0  0  0  0  0  0  0  0
    4.9097   -3.0269    0.6038 C   0  0  0  0  0  0  0  0  0  0  0  0
    4.8581   -2.2287    1.3386 H   0  0  0  0  0  0  0  0  0  0  0  0
    4.5393   -3.9338    1.0757 H   0  0  0  0  0  0  0  0  0  0  0  0
    5.9344   -3.1773    0.2780 H   0  0  0  0  0  0  0  0  0  0  0  0
    4.0923   -3.7870   -1.6304 C   0  0  0  0  0  0  0  0  0  0  0  0
    3.9368   -4.7487   -1.1481 H   0  0  0  0  0  0  0  0  0  0  0  0
    5.0782   -3.7770   -2.0873 H   0  0  0  0  0  0  0  0  0  0  0  0
    3.3349   -3.6631   -2.3978 H   0  0  0  0  0  0  0  0  0  0  0  0
    4.2051   -1.2291   -1.0986 C   0  0  0  0  0  0  0  0  0  0  0  0
    3.2290   -0.4844   -0.3584 O   0  0  0  0  0  0  0  0  0  0  0  0
    5.5968   -0.6497   -0.8501 C   0  0  0  0  0  0  0  0  0  0  0  0
    6.3533   -1.2833   -1.3049 H   0  0  0  0  0  0  0  0  0  0  0  0
    5.6529    0.3414   -1.2932 H   0  0  0  0  0  0  0  0  0  0  0  0
    5.7889   -0.5564    0.2128 H   0  0  0  0  0  0  0  0  0  0  0  0
    3.8569   -1.0797   -2.5862 C   0  0  0  0  0  0  0  0  0  0  0  0
    2.8365   -1.4142   -2.7588 H   0  0  0  0  0  0  0  0  0  0  0  0
    3.9187   -0.0269   -2.8535 H   0  0  0  0  0  0  0  0  0  0  0  0
    4.5461   -1.6400   -3.2112 H   0  0  0  0  0  0  0  0  0  0  0  0
   -3.0186   -4.3748   -2.6350 H   0  0  0  0  0  0  0  0  0  0  0  0
   -5.1294    1.5460    0.2067 H   0  0  0  0  0  0  0  0  0  0  0  0
    0.2359   -1.6814    2.9603 C   0  0  0  0  0  0  0  0  0  0  0  0
   -1.0606   -1.6153    3.5420 C   0  0  0  0  0  0  0  0  0  0  0  0
    1.0350   -2.2738    3.9277 C   0  0  0  0  0  0  0  0  0  0  0  0
   -0.9909   -2.1370    4.8038 C   0  0  0  0  0  0  0  0  0  0  0  0
   -1.9500   -1.2197    3.0921 H   0  0  0  0  0  0  0  0  0  0  0  0
    0.2843   -2.5405    5.0433 N   0  0  0  0  0  0  0  0  0  0  0  0
    2.4466   -2.7349    3.8203 C   0  0  0  0  0  0  0  0  0  0  0  0
   -1.7565   -2.2587    5.5459 H   0  0  0  0  0  0  0  0  0  0  0  0
    0.6666   -3.3639    6.1598 C   0  0  0  0  0  0  0  0  0  0  0  0
    2.7158   -3.7644    3.2056 O   0  0  0  0  0  0  0  0  0  0  0  0
    3.3870   -2.0127    4.4633 N   0  0  0  0  0  0  0  0  0  0  0  0
    0.0928   -4.2941    6.1502 H   0  0  0  0  0  0  0  0  0  0  0  0
    0.4793   -2.8475    7.1023 H   0  0  0  0  0  0  0  0  0  0  0  0
    1.7219   -3.6116    6.0816 H   0  0  0  0  0  0  0  0  0  0  0  0
    4.7804   -2.3991    4.3321 C   0  0  0  0  0  0  0  0  0  0  0  0
    3.1065   -0.7557    5.1289 C   0  0  0  0  0  0  0  0  0  0  0  0
    5.3965   -2.9139    5.6351 C   0  0  0  0  0  0  0  0  0  0  0  0
    5.3405   -1.5369    3.9606 H   0  0  0  0  0  0  0  0  0  0  0  0
    4.8172   -3.1933    3.5836 H   0  0  0  0  0  0  0  0  0  0  0  0
    2.8503   -0.9110    6.6421 C   0  0  0  0  0  0  0  0  0  0  0  0
    2.2526   -0.2960    4.6278 H   0  0  0  0  0  0  0  0  0  0  0  0
    3.9757   -0.1150    4.9687 H   0  0  0  0  0  0  0  0  0  0  0  0
    6.7751   -3.5411    5.4174 C   0  0  0  0  0  0  0  0  0  0  0  0
    4.7375   -3.6817    6.0476 H   0  0  0  0  0  0  0  0  0  0  0  0
    5.4698   -2.1057    6.3616 H   0  0  0  0  0  0  0  0  0  0  0  0
    3.6417    0.0648    7.5161 C   0  0  0  0  0  0  0  0  0  0  0  0
    3.1242   -1.9241    6.9346 H   0  0  0  0  0  0  0  0  0  0  0  0
    1.7880   -0.7819    6.8478 H   0  0  0  0  0  0  0  0  0  0  0  0
    7.8468   -2.5835    4.8894 C   0  0  0  0  0  0  0  0  0  0  0  0
    6.6734   -4.3630    4.7046 H   0  0  0  0  0  0  0  0  0  0  0  0
    7.1123   -3.9707    6.3625 H   0  0  0  0  0  0  0  0  0  0  0  0
    3.1120    1.4952    7.4627 C   0  0  0  0  0  0  0  0  0  0  0  0
    4.6922    0.0583    7.2171 H   0  0  0  0  0  0  0  0  0  0  0  0
    3.5944   -0.2830    8.5511 H   0  0  0  0  0  0  0  0  0  0  0  0
    8.1379   -1.3760    5.7831 C   0  0  0  0  0  0  0  0  0  0  0  0
    7.5501   -2.2258    3.9021 H   0  0  0  0  0  0  0  0  0  0  0  0
    8.7719   -3.1518    4.7624 H   0  0  0  0  0  0  0  0  0  0  0  0
    3.8849    2.4228    8.3990 C   0  0  0  0  0  0  0  0  0  0  0  0
    2.0566    1.4993    7.7445 H   0  0  0  0  0  0  0  0  0  0  0  0
    3.1819    1.8768    6.4436 H   0  0  0  0  0  0  0  0  0  0  0  0
    8.7026   -1.7565    7.1476 C   0  0  0  0  0  0  0  0  0  0  0  0
    7.2295   -0.7872    5.9169 H   0  0  0  0  0  0  0  0  0  0  0  0
    8.8625   -0.7403    5.2674 H   0  0  0  0  0  0  0  0  0  0  0  0
    3.3452    3.8480    8.3621 C   0  0  0  0  0  0  0  0  0  0  0  0
    4.9393    2.4274    8.1134 H   0  0  0  0  0  0  0  0  0  0  0  0
    3.8215    2.0389    9.4202 H   0  0  0  0  0  0  0  0  0  0  0  0
    7.9745   -2.3134    7.7312 H   0  0  0  0  0  0  0  0  0  0  0  0
    8.9728   -0.8629    7.7064 H   0  0  0  0  0  0  0  0  0  0  0  0
    9.5938   -2.3702    7.0322 H   0  0  0  0  0  0  0  0  0  0  0  0
    3.4200    4.2575    7.3573 H   0  0  0  0  0  0  0  0  0  0  0  0
    3.9084    4.4884    9.0373 H   0  0  0  0  0  0  0  0  0  0  0  0
    2.2996    3.8674    8.6618 H   0  0  0  0  0  0  0  0  0  0  0  0
  1  2  4  0  0  0  0
  2  3  4  0  0  0  0
  3  4  4  0  0  0  0
  4  5  4  0  0  0  0
  1  6  4  0  0  0  0
  5  6  4  0  0  0  0
  6  7  1  0  0  0  0
  5  8  1  0  0  0  0
  3  9  1  0  0  0  0
  2 10  1  0  0  0  0
 10 11  4  0  0  0  0
 11 12  4  0  0  0  0
 12 13  4  0  0  0  0
 13 14  4  0  0  0  0
 10 15  4  0  0  0  0
 14 15  4  0  0  0  0
 15 16  1  0  0  0  0
 13 17  1  0  0  0  0
 12 18  1  0  0  0  0
  1 19  1  0  0  0  0
 11 19  1  0  0  0  0
 19 20  1  0  0  0  0
 19 21  1  0  0  0  0
 21 22  1  0  0  0  0
 22 23  1  0  0  0  0
 23 24  1  0  0  0  0
 24 25  1  0  0  0  0
 24 26  1  0  0  0  0
 24 27  1  0  0  0  0
 23 28  1  0  0  0  0
 28 29  1  0  0  0  0
 28 30  1  0  0  0  0
 28 31  1  0  0  0  0
 23 32  1  0  0  0  0
 21 33  1  0  0  0  0
 32 33  1  0  0  0  0
 32 34  1  0  0  0  0
 34 35  1  0  0  0  0
 34 36  1  0  0  0  0
 34 37  1  0  0  0  0
 32 38  1  0  0  0  0
 38 39  1  0  0  0  0
 38 40  1  0  0  0  0
 38 41  1  0  0  0  0
 19 42  1  0  0  0  0
 42 43  1  0  0  0  0
 43 44  1  0  0  0  0
 44 45  1  0  0  0  0
 45 46  1  0  0  0  0
 45 47  1  0  0  0  0
 45 48  1  0  0  0  0
 44 49  1  0  0  0  0
 49 50  1  0  0  0  0
 49 51  1  0  0  0  0
 49 52  1  0  0  0  0
 44 53  1  0  0  0  0
 42 54  1  0  0  0  0
 53 54  1  0  0  0  0
 53 55  1  0  0  0  0
 55 56  1  0  0  0  0
 55 57  1  0  0  0  0
 55 58  1  0  0  0  0
 53 59  1  0  0  0  0
 59 60  1  0  0  0  0
 59 61  1  0  0  0  0
 59 62  1  0  0  0  0
 19 63  1  0  0  0  0
 63 64  1  0  0  0  0
 64 65  1  0  0  0  0
 65 66  1  0  0  0  0
 66 67  1  0  0  0  0
 66 68  1  0  0  0  0
 66 69  1  0  0  0  0
 65 70  1  0  0  0  0
 70 71  1  0  0  0  0
 70 72  1  0  0  0  0
 70 73  1  0  0  0  0
 65 74  1  0  0  0  0
 63 75  1  0  0  0  0
 74 75  1  0  0  0  0
 74 76  1  0  0  0  0
 76 77  1  0  0  0  0
 76 78  1  0  0  0  0
 76 79  1  0  0  0  0
 74 80  1  0  0  0  0
 80 81  1  0  0  0  0
 80 82  1  0  0  0  0
 80 83  1  0  0  0  0
  4 84  1  0  0  0  0
 14 85  1  0  0  0  0
 19 86  1  0  0  0  0
 20 86  1  0  0  0  0
 86 87  4  0  0  0  0
 86 88  4  0  0  0  0
 87 89  2  0  0  0  0
 87 90  1  0  0  0  0
 88 91  1  0  0  0  0
 89 91  4  0  0  0  0
 88 92  1  0  0  0  0
 89 93  1  0  0  0  0
 91 94  1  0  0  0  0
 92 95  2  0  0  0  0
 92 96  4  0  0  0  0
 94 97  1  0  0  0  0
 94 98  1  0  0  0  0
 94 99  1  0  0  0  0
 96100  1  0  0  0  0
 96101  1  0  0  0  0
100102  1  0  0  0  0
100103  1  0  0  0  0
100104  1  0  0  0  0
101105  1  0  0  0  0
101106  1  0  0  0  0
101107  1  0  0  0  0
102108  1  0  0  0  0
102109  1  0  0  0  0
102110  1  0  0  0  0
105111  1  0  0  0  0
105112  1  0  0  0  0
105113  1  0  0  0  0
108114  1  0  0  0  0
108115  1  0  0  0  0
108116  1  0  0  0  0
111117  1  0  0  0  0
111118  1  0  0  0  0
111119  1  0  0  0  0
114120  1  0  0  0  0
114121  1  0  0  0  0
114122  1  0  0  0  0
117123  1  0  0  0  0
117124  1  0  0  0  0
117125  1  0  0  0  0
120126  1  0  0  0  0
120127  1  0  0  0  0
120128  1  0  0  0  0
123129  1  0  0  0  0
123130  1  0  0  0  0
123131  1  0  0  0  0
126132  1  0  0  0  0
126133  1  0  0  0  0
126134  1  0  0  0  0
129135  1  0  0  0  0
129136  1  0  0  0  0
129137  1  0  0  0  0
M  END
