    8

C          0.10407        1.23205       -0.00493
S         -1.08317       -0.00090       -0.00998
C          0.11197       -1.22618       -0.00520
C          1.38749       -0.70559        0.00149
C          1.38296        0.71960        0.00136
H         -0.19361        2.27156       -0.00667
H         -0.17912       -2.26755       -0.00724
H          2.27214        1.33791        0.00542
