
  xtb     01142215013D
 xtb: 6.4.1 (1a32961)
 95102  0     0  0            999 V2000
   -0.9195   -1.9952   -0.4206 N   0  0  0  0  0  0  0  0  0  0  0  0
   -2.1386   -1.4669   -0.6183 C   0  0  0  0  0  0  0  0  0  0  0  0
   -2.9881   -1.9731   -1.6079 C   0  0  0  0  0  0  0  0  0  0  0  0
   -2.5775   -3.0347   -2.3864 C   0  0  0  0  0  0  0  0  0  0  0  0
   -1.3168   -3.5768   -2.1629 C   0  0  0  0  0  0  0  0  0  0  0  0
   -0.5321   -3.0174   -1.1744 C   0  0  0  0  0  0  0  0  0  0  0  0
    0.4554   -3.4034   -0.9639 H   0  0  0  0  0  0  0  0  0  0  0  0
   -0.9569   -4.4105   -2.7433 H   0  0  0  0  0  0  0  0  0  0  0  0
   -3.9609   -1.5408   -1.7734 H   0  0  0  0  0  0  0  0  0  0  0  0
   -2.5158   -0.3542    0.2522 C   0  0  0  0  0  0  0  0  0  0  0  0
   -1.5813    0.0824    1.1201 N   0  0  0  0  0  0  0  0  0  0  0  0
   -1.8909    1.0746    1.9495 C   0  0  0  0  0  0  0  0  0  0  0  0
   -3.1255    1.6936    1.9702 C   0  0  0  0  0  0  0  0  0  0  0  0
   -4.0965    1.2638    1.0730 C   0  0  0  0  0  0  0  0  0  0  0  0
   -3.7836    0.2349    0.2089 C   0  0  0  0  0  0  0  0  0  0  0  0
   -4.5275   -0.1149   -0.4868 H   0  0  0  0  0  0  0  0  0  0  0  0
   -3.3248    2.4853    2.6738 H   0  0  0  0  0  0  0  0  0  0  0  0
   -1.1001    1.3840    2.6156 H   0  0  0  0  0  0  0  0  0  0  0  0
    0.4215   -0.8165    0.9133 Ir  0  0  0  0  0  0  0  0  0  0  0  0
    0.8726   -2.2303    1.5405 H   0  0  0  0  0  0  0  0  0  0  0  0
    0.4392    0.5841   -0.6350 B   0  0  0  0  0  0  0  0  0  0  0  0
   -0.1702    0.2819   -1.8367 O   0  0  0  0  0  0  0  0  0  0  0  0
   -0.2373    1.4522   -2.6604 C   0  0  0  0  0  0  0  0  0  0  0  0
    0.0574    1.0757   -4.1098 C   0  0  0  0  0  0  0  0  0  0  0  0
    0.9840    0.5160   -4.1794 H   0  0  0  0  0  0  0  0  0  0  0  0
    0.1222    1.9704   -4.7233 H   0  0  0  0  0  0  0  0  0  0  0  0
   -0.7478    0.4492   -4.4859 H   0  0  0  0  0  0  0  0  0  0  0  0
   -1.6718    1.9891   -2.5578 C   0  0  0  0  0  0  0  0  0  0  0  0
   -1.8116    2.8586   -3.1929 H   0  0  0  0  0  0  0  0  0  0  0  0
   -2.3586    1.2057   -2.8719 H   0  0  0  0  0  0  0  0  0  0  0  0
   -1.9027    2.2461   -1.5259 H   0  0  0  0  0  0  0  0  0  0  0  0
    0.8149    2.3981   -1.9934 C   0  0  0  0  0  0  0  0  0  0  0  0
    0.8943    1.8799   -0.6563 O   0  0  0  0  0  0  0  0  0  0  0  0
    2.2113    2.2456   -2.6078 C   0  0  0  0  0  0  0  0  0  0  0  0
    2.5123    1.2026   -2.5484 H   0  0  0  0  0  0  0  0  0  0  0  0
    2.2324    2.5939   -3.6362 H   0  0  0  0  0  0  0  0  0  0  0  0
    2.9167    2.8296   -2.0217 H   0  0  0  0  0  0  0  0  0  0  0  0
    0.4270    3.8747   -1.9590 C   0  0  0  0  0  0  0  0  0  0  0  0
   -0.4676    4.0341   -1.3652 H   0  0  0  0  0  0  0  0  0  0  0  0
    1.2371    4.4454   -1.5115 H   0  0  0  0  0  0  0  0  0  0  0  0
    0.2606    4.2382   -2.9697 H   0  0  0  0  0  0  0  0  0  0  0  0
    1.5773    0.6577    1.8392 B   0  0  0  0  0  0  0  0  0  0  0  0
    2.9433    0.7838    1.8506 O   0  0  0  0  0  0  0  0  0  0  0  0
    3.3167    2.0682    2.3746 C   0  0  0  0  0  0  0  0  0  0  0  0
    4.5520    1.9253    3.2622 C   0  0  0  0  0  0  0  0  0  0  0  0
    4.4015    1.1726    4.0288 H   0  0  0  0  0  0  0  0  0  0  0  0
    5.3965    1.6199    2.6499 H   0  0  0  0  0  0  0  0  0  0  0  0
    4.7864    2.8778    3.7292 H   0  0  0  0  0  0  0  0  0  0  0  0
    3.6532    2.9479    1.1653 C   0  0  0  0  0  0  0  0  0  0  0  0
    3.9304    3.9533    1.4674 H   0  0  0  0  0  0  0  0  0  0  0  0
    4.4855    2.4973    0.6294 H   0  0  0  0  0  0  0  0  0  0  0  0
    2.7967    2.9696    0.4970 H   0  0  0  0  0  0  0  0  0  0  0  0
    2.0162    2.5292    3.1201 C   0  0  0  0  0  0  0  0  0  0  0  0
    1.0049    1.6889    2.5438 O   0  0  0  0  0  0  0  0  0  0  0  0
    1.6343    3.9917    2.8985 C   0  0  0  0  0  0  0  0  0  0  0  0
    1.4148    4.1734    1.8519 H   0  0  0  0  0  0  0  0  0  0  0  0
    0.7427    4.2176    3.4780 H   0  0  0  0  0  0  0  0  0  0  0  0
    2.4387    4.6446    3.2252 H   0  0  0  0  0  0  0  0  0  0  0  0
    2.0448    2.2369    4.6255 C   0  0  0  0  0  0  0  0  0  0  0  0
    2.2641    1.1873    4.8002 H   0  0  0  0  0  0  0  0  0  0  0  0
    2.7783    2.8588    5.1292 H   0  0  0  0  0  0  0  0  0  0  0  0
    1.0617    2.4450    5.0414 H   0  0  0  0  0  0  0  0  0  0  0  0
    2.2782   -1.3309    0.1741 B   0  0  0  0  0  0  0  0  0  0  0  0
    3.1048   -2.2750    0.7437 O   0  0  0  0  0  0  0  0  0  0  0  0
    4.3898   -2.2662    0.1064 C   0  0  0  0  0  0  0  0  0  0  0  0
    5.3378   -1.5191    1.0502 C   0  0  0  0  0  0  0  0  0  0  0  0
    4.9219   -0.5387    1.2631 H   0  0  0  0  0  0  0  0  0  0  0  0
    5.3948   -2.0697    1.9859 H   0  0  0  0  0  0  0  0  0  0  0  0
    6.3344   -1.4325    0.6292 H   0  0  0  0  0  0  0  0  0  0  0  0
    4.8784   -3.7039   -0.0697 C   0  0  0  0  0  0  0  0  0  0  0  0
    5.0204   -4.1472    0.9123 H   0  0  0  0  0  0  0  0  0  0  0  0
    5.8253   -3.7149   -0.6017 H   0  0  0  0  0  0  0  0  0  0  0  0
    4.1534   -4.3056   -0.6073 H   0  0  0  0  0  0  0  0  0  0  0  0
    4.1096   -1.4906   -1.2297 C   0  0  0  0  0  0  0  0  0  0  0  0
    2.8600   -0.8311   -0.9643 O   0  0  0  0  0  0  0  0  0  0  0  0
    5.1600   -0.4420   -1.5912 C   0  0  0  0  0  0  0  0  0  0  0  0
    6.1374   -0.9056   -1.6907 H   0  0  0  0  0  0  0  0  0  0  0  0
    4.8929    0.0194   -2.5385 H   0  0  0  0  0  0  0  0  0  0  0  0
    5.1949    0.3336   -0.8343 H   0  0  0  0  0  0  0  0  0  0  0  0
    3.8856   -2.4139   -2.4344 C   0  0  0  0  0  0  0  0  0  0  0  0
    3.1101   -3.1416   -2.2127 H   0  0  0  0  0  0  0  0  0  0  0  0
    3.5491   -1.8123   -3.2753 H   0  0  0  0  0  0  0  0  0  0  0  0
    4.8028   -2.9250   -2.7103 H   0  0  0  0  0  0  0  0  0  0  0  0
   -3.2241   -3.4343   -3.1529 H   0  0  0  0  0  0  0  0  0  0  0  0
   -5.0749    1.7192    1.0530 H   0  0  0  0  0  0  0  0  0  0  0  0
    0.2359   -1.6814    2.9603 C   0  0  0  0  0  0  0  0  0  0  0  0
   -0.9876   -2.1549    3.4425 C   0  0  0  0  0  0  0  0  0  0  0  0
    1.2132   -1.4484    3.9408 C   0  0  0  0  0  0  0  0  0  0  0  0
   -2.2395   -2.6960    2.3794 Cl  0  0  0  0  0  0  0  0  0  0  0  0
   -1.2052   -2.2235    4.8153 C   0  0  0  0  0  0  0  0  0  0  0  0
    0.9068   -1.5780    5.2785 C   0  0  0  0  0  0  0  0  0  0  0  0
    2.2065   -1.1707    3.6283 H   0  0  0  0  0  0  0  0  0  0  0  0
   -2.7446   -2.7184    5.4362 Cl  0  0  0  0  0  0  0  0  0  0  0  0
   -0.2972   -1.9349    5.7175 N   0  0  0  0  0  0  0  0  0  0  0  0
    1.6321   -1.3928    6.0582 H   0  0  0  0  0  0  0  0  0  0  0  0
  1  2  4  0  0  0  0
  2  3  4  0  0  0  0
  3  4  4  0  0  0  0
  4  5  4  0  0  0  0
  1  6  4  0  0  0  0
  5  6  4  0  0  0  0
  6  7  1  0  0  0  0
  5  8  1  0  0  0  0
  3  9  1  0  0  0  0
  2 10  1  0  0  0  0
 10 11  4  0  0  0  0
 11 12  4  0  0  0  0
 12 13  4  0  0  0  0
 13 14  4  0  0  0  0
 10 15  4  0  0  0  0
 14 15  4  0  0  0  0
 15 16  1  0  0  0  0
 13 17  1  0  0  0  0
 12 18  1  0  0  0  0
  1 19  1  0  0  0  0
 11 19  1  0  0  0  0
 19 20  1  0  0  0  0
 19 21  1  0  0  0  0
 21 22  1  0  0  0  0
 22 23  1  0  0  0  0
 23 24  1  0  0  0  0
 24 25  1  0  0  0  0
 24 26  1  0  0  0  0
 24 27  1  0  0  0  0
 23 28  1  0  0  0  0
 28 29  1  0  0  0  0
 28 30  1  0  0  0  0
 28 31  1  0  0  0  0
 23 32  1  0  0  0  0
 21 33  1  0  0  0  0
 32 33  1  0  0  0  0
 32 34  1  0  0  0  0
 34 35  1  0  0  0  0
 34 36  1  0  0  0  0
 34 37  1  0  0  0  0
 32 38  1  0  0  0  0
 38 39  1  0  0  0  0
 38 40  1  0  0  0  0
 38 41  1  0  0  0  0
 19 42  1  0  0  0  0
 42 43  1  0  0  0  0
 43 44  1  0  0  0  0
 44 45  1  0  0  0  0
 45 46  1  0  0  0  0
 45 47  1  0  0  0  0
 45 48  1  0  0  0  0
 44 49  1  0  0  0  0
 49 50  1  0  0  0  0
 49 51  1  0  0  0  0
 49 52  1  0  0  0  0
 44 53  1  0  0  0  0
 42 54  1  0  0  0  0
 53 54  1  0  0  0  0
 53 55  1  0  0  0  0
 55 56  1  0  0  0  0
 55 57  1  0  0  0  0
 55 58  1  0  0  0  0
 53 59  1  0  0  0  0
 59 60  1  0  0  0  0
 59 61  1  0  0  0  0
 59 62  1  0  0  0  0
 19 63  1  0  0  0  0
 63 64  1  0  0  0  0
 64 65  1  0  0  0  0
 65 66  1  0  0  0  0
 66 67  1  0  0  0  0
 66 68  1  0  0  0  0
 66 69  1  0  0  0  0
 65 70  1  0  0  0  0
 70 71  1  0  0  0  0
 70 72  1  0  0  0  0
 70 73  1  0  0  0  0
 65 74  1  0  0  0  0
 63 75  1  0  0  0  0
 74 75  1  0  0  0  0
 74 76  1  0  0  0  0
 76 77  1  0  0  0  0
 76 78  1  0  0  0  0
 76 79  1  0  0  0  0
 74 80  1  0  0  0  0
 80 81  1  0  0  0  0
 80 82  1  0  0  0  0
 80 83  1  0  0  0  0
  4 84  1  0  0  0  0
 14 85  1  0  0  0  0
 19 86  1  0  0  0  0
 20 86  1  0  0  0  0
 86 87  4  0  0  0  0
 86 88  4  0  0  0  0
 87 89  1  0  0  0  0
 87 90  4  0  0  0  0
 88 91  4  0  0  0  0
 88 92  1  0  0  0  0
 90 93  1  0  0  0  0
 90 94  4  0  0  0  0
 91 94  4  0  0  0  0
 91 95  1  0  0  0  0
M  END
