   24

C         -1.12139       -0.14882        0.04608
C         -0.87791        1.18214       -0.22382
C         -1.56931        1.50624       -1.41107
C         -2.20844        0.36360       -1.82983
N         -1.93982       -0.67142       -0.94309
C         -2.44116       -1.97967       -1.08397
O         -3.13806       -2.26787       -2.04387
O         -2.05592       -2.77717       -0.04924
C         -2.53978       -4.14768       -0.03119
C         -2.00715       -4.94132       -1.23305
C         -1.98015       -4.79073        1.24867
C         -4.07259       -4.18846        0.05488
H         -0.26783        1.85139        0.37003
H         -1.60204        2.46563       -1.91229
H         -2.84336        0.18073       -2.68889
H         -0.91161       -4.91571       -1.25776
H         -2.34647       -4.53192       -2.18823
H         -2.32806       -5.98776       -1.19327
H         -0.88463       -4.77854        1.25175
H         -2.31144       -5.83114        1.34972
H         -2.30271       -4.24048        2.13959
H         -4.55288       -3.75588       -0.82677
H         -4.42439       -3.60807        0.91572
H         -4.43991       -5.21516        0.15402
