
  xtb     01142214183D
 xtb: 6.4.1 (1a32961)
 99107  0     0  0            999 V2000
   -0.9278   -2.0356   -0.3677 N   0  0  0  0  0  0  0  0  0  0  0  0
   -2.1864   -1.5784   -0.4802 C   0  0  0  0  0  0  0  0  0  0  0  0
   -3.0524   -2.0838   -1.4559 C   0  0  0  0  0  0  0  0  0  0  0  0
   -2.6179   -3.0752   -2.3097 C   0  0  0  0  0  0  0  0  0  0  0  0
   -1.3169   -3.5487   -2.1724 C   0  0  0  0  0  0  0  0  0  0  0  0
   -0.5187   -2.9933   -1.1931 C   0  0  0  0  0  0  0  0  0  0  0  0
    0.5005   -3.3243   -1.0520 H   0  0  0  0  0  0  0  0  0  0  0  0
   -0.9358   -4.3260   -2.8144 H   0  0  0  0  0  0  0  0  0  0  0  0
   -4.0525   -1.6958   -1.5570 H   0  0  0  0  0  0  0  0  0  0  0  0
   -2.5791   -0.5259    0.4532 C   0  0  0  0  0  0  0  0  0  0  0  0
   -1.6020    0.0008    1.2157 N   0  0  0  0  0  0  0  0  0  0  0  0
   -1.9100    0.9672    2.0758 C   0  0  0  0  0  0  0  0  0  0  0  0
   -3.1895    1.4609    2.2386 C   0  0  0  0  0  0  0  0  0  0  0  0
   -4.2122    0.9200    1.4669 C   0  0  0  0  0  0  0  0  0  0  0  0
   -3.8996   -0.0781    0.5679 C   0  0  0  0  0  0  0  0  0  0  0  0
   -4.6802   -0.5188   -0.0294 H   0  0  0  0  0  0  0  0  0  0  0  0
   -3.3834    2.2407    2.9570 H   0  0  0  0  0  0  0  0  0  0  0  0
   -1.0817    1.3565    2.6483 H   0  0  0  0  0  0  0  0  0  0  0  0
    0.4215   -0.8165    0.9133 Ir  0  0  0  0  0  0  0  0  0  0  0  0
    0.8726   -2.2303    1.5405 H   0  0  0  0  0  0  0  0  0  0  0  0
    0.3516    0.6006   -0.6135 B   0  0  0  0  0  0  0  0  0  0  0  0
   -0.3673    0.3352   -1.7662 O   0  0  0  0  0  0  0  0  0  0  0  0
   -0.5435    1.5400   -2.5194 C   0  0  0  0  0  0  0  0  0  0  0  0
   -0.4151    1.2403   -4.0104 C   0  0  0  0  0  0  0  0  0  0  0  0
    0.4991    0.6934   -4.2157 H   0  0  0  0  0  0  0  0  0  0  0  0
   -0.4233    2.1660   -4.5799 H   0  0  0  0  0  0  0  0  0  0  0  0
   -1.2561    0.6264   -4.3240 H   0  0  0  0  0  0  0  0  0  0  0  0
   -1.9624    2.0479   -2.2237 C   0  0  0  0  0  0  0  0  0  0  0  0
   -2.1881    2.9417   -2.7976 H   0  0  0  0  0  0  0  0  0  0  0  0
   -2.6736    1.2675   -2.4877 H   0  0  0  0  0  0  0  0  0  0  0  0
   -2.0699    2.2562   -1.1609 H   0  0  0  0  0  0  0  0  0  0  0  0
    0.5652    2.4717   -1.9309 C   0  0  0  0  0  0  0  0  0  0  0  0
    0.7851    1.9060   -0.6310 O   0  0  0  0  0  0  0  0  0  0  0  0
    1.8920    2.3562   -2.6908 C   0  0  0  0  0  0  0  0  0  0  0  0
    2.1957    1.3124   -2.7215 H   0  0  0  0  0  0  0  0  0  0  0  0
    1.8105    2.7607   -3.6955 H   0  0  0  0  0  0  0  0  0  0  0  0
    2.6542    2.9075   -2.1453 H   0  0  0  0  0  0  0  0  0  0  0  0
    0.1732    3.9422   -1.8029 C   0  0  0  0  0  0  0  0  0  0  0  0
   -0.6513    4.0704   -1.1085 H   0  0  0  0  0  0  0  0  0  0  0  0
    1.0236    4.5063   -1.4276 H   0  0  0  0  0  0  0  0  0  0  0  0
   -0.1071    4.3381   -2.7757 H   0  0  0  0  0  0  0  0  0  0  0  0
    1.5784    0.6476    1.8526 B   0  0  0  0  0  0  0  0  0  0  0  0
    2.9398    0.8232    1.8045 O   0  0  0  0  0  0  0  0  0  0  0  0
    3.2903    2.0992    2.3619 C   0  0  0  0  0  0  0  0  0  0  0  0
    4.5889    1.9819    3.1578 C   0  0  0  0  0  0  0  0  0  0  0  0
    4.5319    1.1775    3.8834 H   0  0  0  0  0  0  0  0  0  0  0  0
    5.4071    1.7649    2.4759 H   0  0  0  0  0  0  0  0  0  0  0  0
    4.7984    2.9183    3.6679 H   0  0  0  0  0  0  0  0  0  0  0  0
    3.4986    3.0493    1.1766 C   0  0  0  0  0  0  0  0  0  0  0  0
    3.7511    4.0519    1.5085 H   0  0  0  0  0  0  0  0  0  0  0  0
    4.3096    2.6643    0.5624 H   0  0  0  0  0  0  0  0  0  0  0  0
    2.5968    3.0596    0.5699 H   0  0  0  0  0  0  0  0  0  0  0  0
    2.0256    2.4597    3.2122 C   0  0  0  0  0  0  0  0  0  0  0  0
    1.0088    1.6336    2.6279 O   0  0  0  0  0  0  0  0  0  0  0  0
    1.5931    3.9224    3.1349 C   0  0  0  0  0  0  0  0  0  0  0  0
    1.3118    4.1849    2.1206 H   0  0  0  0  0  0  0  0  0  0  0  0
    0.7297    4.0722    3.7786 H   0  0  0  0  0  0  0  0  0  0  0  0
    2.3979    4.5697    3.4725 H   0  0  0  0  0  0  0  0  0  0  0  0
    2.1538    2.0459    4.6839 C   0  0  0  0  0  0  0  0  0  0  0  0
    2.4171    0.9940    4.7526 H   0  0  0  0  0  0  0  0  0  0  0  0
    2.8970    2.6485    5.1971 H   0  0  0  0  0  0  0  0  0  0  0  0
    1.1913    2.1805    5.1719 H   0  0  0  0  0  0  0  0  0  0  0  0
    2.2782   -1.3309    0.1741 B   0  0  0  0  0  0  0  0  0  0  0  0
    3.1553   -2.2355    0.7322 O   0  0  0  0  0  0  0  0  0  0  0  0
    4.4151   -2.2013    0.0472 C   0  0  0  0  0  0  0  0  0  0  0  0
    5.3777   -1.4119    0.9406 C   0  0  0  0  0  0  0  0  0  0  0  0
    4.9384   -0.4433    1.1602 H   0  0  0  0  0  0  0  0  0  0  0  0
    5.4938   -1.9477    1.8793 H   0  0  0  0  0  0  0  0  0  0  0  0
    6.3516   -1.2979    0.4750 H   0  0  0  0  0  0  0  0  0  0  0  0
    4.9388   -3.6277   -0.1228 C   0  0  0  0  0  0  0  0  0  0  0  0
    5.1267   -4.0504    0.8606 H   0  0  0  0  0  0  0  0  0  0  0  0
    5.8672   -3.6202   -0.6869 H   0  0  0  0  0  0  0  0  0  0  0  0
    4.2137   -4.2587   -0.6255 H   0  0  0  0  0  0  0  0  0  0  0  0
    4.0664   -1.4585   -1.2920 C   0  0  0  0  0  0  0  0  0  0  0  0
    2.8032   -0.8424   -0.9999 O   0  0  0  0  0  0  0  0  0  0  0  0
    5.0612   -0.3737   -1.7023 C   0  0  0  0  0  0  0  0  0  0  0  0
    6.0508   -0.7989   -1.8439 H   0  0  0  0  0  0  0  0  0  0  0  0
    4.7322    0.0718   -2.6377 H   0  0  0  0  0  0  0  0  0  0  0  0
    5.0981    0.4072   -0.9509 H   0  0  0  0  0  0  0  0  0  0  0  0
    3.8454   -2.4082   -2.4772 C   0  0  0  0  0  0  0  0  0  0  0  0
    3.1059   -3.1626   -2.2238 H   0  0  0  0  0  0  0  0  0  0  0  0
    3.4623   -1.8323   -3.3159 H   0  0  0  0  0  0  0  0  0  0  0  0
    4.7740   -2.8875   -2.7716 H   0  0  0  0  0  0  0  0  0  0  0  0
   -3.2737   -3.4716   -3.0699 H   0  0  0  0  0  0  0  0  0  0  0  0
   -5.2285    1.2688    1.5694 H   0  0  0  0  0  0  0  0  0  0  0  0
    0.2359   -1.6814    2.9603 C   0  0  0  0  0  0  0  0  0  0  0  0
   -1.3534   -2.2193    3.4793 S   0  0  0  0  0  0  0  0  0  0  0  0
    1.0927   -1.6228    4.0131 C   0  0  0  0  0  0  0  0  0  0  0  0
   -0.8532   -2.2817    5.1505 C   0  0  0  0  0  0  0  0  0  0  0  0
    0.5054   -1.9263    5.2754 C   0  0  0  0  0  0  0  0  0  0  0  0
    2.1310   -1.3701    3.8893 H   0  0  0  0  0  0  0  0  0  0  0  0
   -1.6218   -2.6276    6.2493 C   0  0  0  0  0  0  0  0  0  0  0  0
    1.0822   -1.9286    6.5480 C   0  0  0  0  0  0  0  0  0  0  0  0
   -1.0252   -2.6217    7.4956 C   0  0  0  0  0  0  0  0  0  0  0  0
   -2.6599   -2.8978    6.1281 H   0  0  0  0  0  0  0  0  0  0  0  0
    0.3176   -2.2739    7.6409 C   0  0  0  0  0  0  0  0  0  0  0  0
    2.1225   -1.6604    6.6609 H   0  0  0  0  0  0  0  0  0  0  0  0
   -1.6042   -2.8910    8.3665 H   0  0  0  0  0  0  0  0  0  0  0  0
    0.7607   -2.2775    8.6263 H   0  0  0  0  0  0  0  0  0  0  0  0
  1  2  4  0  0  0  0
  2  3  4  0  0  0  0
  3  4  4  0  0  0  0
  4  5  4  0  0  0  0
  1  6  4  0  0  0  0
  5  6  4  0  0  0  0
  6  7  1  0  0  0  0
  5  8  1  0  0  0  0
  3  9  1  0  0  0  0
  2 10  1  0  0  0  0
 10 11  4  0  0  0  0
 11 12  4  0  0  0  0
 12 13  4  0  0  0  0
 13 14  4  0  0  0  0
 10 15  4  0  0  0  0
 14 15  4  0  0  0  0
 15 16  1  0  0  0  0
 13 17  1  0  0  0  0
 12 18  1  0  0  0  0
  1 19  1  0  0  0  0
 11 19  1  0  0  0  0
 19 20  1  0  0  0  0
 19 21  1  0  0  0  0
 21 22  1  0  0  0  0
 22 23  1  0  0  0  0
 23 24  1  0  0  0  0
 24 25  1  0  0  0  0
 24 26  1  0  0  0  0
 24 27  1  0  0  0  0
 23 28  1  0  0  0  0
 28 29  1  0  0  0  0
 28 30  1  0  0  0  0
 28 31  1  0  0  0  0
 23 32  1  0  0  0  0
 21 33  1  0  0  0  0
 32 33  1  0  0  0  0
 32 34  1  0  0  0  0
 34 35  1  0  0  0  0
 34 36  1  0  0  0  0
 34 37  1  0  0  0  0
 32 38  1  0  0  0  0
 38 39  1  0  0  0  0
 38 40  1  0  0  0  0
 38 41  1  0  0  0  0
 19 42  1  0  0  0  0
 42 43  1  0  0  0  0
 43 44  1  0  0  0  0
 44 45  1  0  0  0  0
 45 46  1  0  0  0  0
 45 47  1  0  0  0  0
 45 48  1  0  0  0  0
 44 49  1  0  0  0  0
 49 50  1  0  0  0  0
 49 51  1  0  0  0  0
 49 52  1  0  0  0  0
 44 53  1  0  0  0  0
 42 54  1  0  0  0  0
 53 54  1  0  0  0  0
 53 55  1  0  0  0  0
 55 56  1  0  0  0  0
 55 57  1  0  0  0  0
 55 58  1  0  0  0  0
 53 59  1  0  0  0  0
 59 60  1  0  0  0  0
 59 61  1  0  0  0  0
 59 62  1  0  0  0  0
 19 63  1  0  0  0  0
 63 64  1  0  0  0  0
 64 65  1  0  0  0  0
 65 66  1  0  0  0  0
 66 67  1  0  0  0  0
 66 68  1  0  0  0  0
 66 69  1  0  0  0  0
 65 70  1  0  0  0  0
 70 71  1  0  0  0  0
 70 72  1  0  0  0  0
 70 73  1  0  0  0  0
 65 74  1  0  0  0  0
 63 75  1  0  0  0  0
 74 75  1  0  0  0  0
 74 76  1  0  0  0  0
 76 77  1  0  0  0  0
 76 78  1  0  0  0  0
 76 79  1  0  0  0  0
 74 80  1  0  0  0  0
 80 81  1  0  0  0  0
 80 82  1  0  0  0  0
 80 83  1  0  0  0  0
  4 84  1  0  0  0  0
 14 85  1  0  0  0  0
 19 86  1  0  0  0  0
 20 86  1  0  0  0  0
 86 87  1  0  0  0  0
 86 88  2  0  0  0  0
 87 89  1  0  0  0  0
 88 90  1  0  0  0  0
 89 90  4  0  0  0  0
 88 91  1  0  0  0  0
 89 92  4  0  0  0  0
 90 93  4  0  0  0  0
 92 94  4  0  0  0  0
 92 95  1  0  0  0  0
 93 96  4  0  0  0  0
 94 96  4  0  0  0  0
 93 97  1  0  0  0  0
 94 98  1  0  0  0  0
 96 99  1  0  0  0  0
M  END
