   20
Created with kallisto
C     -1.2878    0.2655   -0.0649
C     -0.3454    1.2891   -0.0305
C     -0.8582   -1.0519   -0.0329
C      1.0369    1.0273    0.0418
H     -0.6892    2.3226   -0.0476
C      0.5079   -1.3366    0.0575
H     -1.5862   -1.8600   -0.0444
C      1.4769   -0.3099    0.1073
O      1.7364    2.2007    0.1053
H      0.7824   -2.3832    0.1461
C      2.8892   -0.7144    0.3856
C      3.0449    2.2879   -0.4343
O      3.6155    0.0088    1.0716
C      3.4411   -2.0235   -0.1363
H      3.1347    3.2667   -0.9196
H      3.2660    1.5267   -1.1872
H      3.7735    2.2796    0.3800
H      2.6966   -2.6845   -0.5800
H      3.9052   -2.5645    0.7017
H      4.2025   -1.8196   -0.8928
