
  xtb     01142215263D
 xtb: 6.4.1 (1a32961)
 11 11  0     0  0            999 V2000
   -1.2024   -0.6916   -0.0194 C   0  0  0  0  0  0  0  0  0  0  0  0
    0.0012   -1.3811    0.0167 C   0  0  0  0  0  0  0  0  0  0  0  0
    1.1520   -0.6130    0.0635 C   0  0  0  0  0  0  0  0  0  0  0  0
    2.3512   -1.2166    0.1021 F   0  0  0  0  0  0  0  0  0  0  0  0
    1.1852    0.6999    0.0762 N   0  0  0  0  0  0  0  0  0  0  0  0
    0.0289    1.3351    0.0399 C   0  0  0  0  0  0  0  0  0  0  0  0
   -1.2018    0.6956   -0.0087 C   0  0  0  0  0  0  0  0  0  0  0  0
    0.1234    3.0521    0.0576 Cl  0  0  0  0  0  0  0  0  0  0  0  0
   -2.1347   -1.2318   -0.0575 H   0  0  0  0  0  0  0  0  0  0  0  0
    0.0583   -2.4560    0.0093 H   0  0  0  0  0  0  0  0  0  0  0  0
   -2.1137    1.2663   -0.0373 H   0  0  0  0  0  0  0  0  0  0  0  0
  1  2  4  0  0  0  0
  2  3  4  0  0  0  0
  3  4  1  0  0  0  0
  3  5  4  0  0  0  0
  5  6  4  0  0  0  0
  1  7  4  0  0  0  0
  6  7  4  0  0  0  0
  6  8  1  0  0  0  0
  1  9  1  0  0  0  0
  2 10  1  0  0  0  0
  7 11  1  0  0  0  0
M  END
