    9

S          1.85294        0.44652        0.00385
C          1.35072       -1.19009        0.00650
C         -0.02141       -1.30963       -0.01165
C         -0.66978       -0.03949       -0.01268
C         -2.08888        0.14102       -0.00973
N         -3.24352        0.26223       -0.00096
C          0.23180        1.00344       -0.01265
H          2.08287       -1.98610        0.02088
H          0.02788        2.06685       -0.01888
