    9
Created with kallisto
C     -0.0214   -1.3096   -0.0117
C      1.3507   -1.1901    0.0065
C     -0.6698   -0.0395   -0.0127
S      1.8529    0.4465    0.0039
H      2.0829   -1.9861    0.0209
C     -2.0889    0.1410   -0.0097
C      0.2318    1.0034   -0.0126
N     -3.2435    0.2622   -0.0010
H      0.0279    2.0669   -0.0189
