
  xtb     10082107203D
 xtb: 6.4.0 (f63f532)
108116  0     0  0            999 V2000
   -0.8725   -2.0459   -0.4041 N   0  0  0  0  0  0  0  0  0  0  0  0
   -2.1517   -1.6468   -0.5337 C   0  0  0  0  0  0  0  0  0  0  0  0
   -3.0015   -2.2512   -1.4696 C   0  0  0  0  0  0  0  0  0  0  0  0
   -2.5269   -3.2617   -2.2764 C   0  0  0  0  0  0  0  0  0  0  0  0
   -1.1997   -3.6592   -2.1348 C   0  0  0  0  0  0  0  0  0  0  0  0
   -0.4243   -3.0214   -1.1894 C   0  0  0  0  0  0  0  0  0  0  0  0
    0.6100   -3.2974   -1.0412 H   0  0  0  0  0  0  0  0  0  0  0  0
   -0.7847   -4.4451   -2.7445 H   0  0  0  0  0  0  0  0  0  0  0  0
   -4.0247   -1.9293   -1.5712 H   0  0  0  0  0  0  0  0  0  0  0  0
   -2.5830   -0.5564    0.3330 C   0  0  0  0  0  0  0  0  0  0  0  0
   -1.6467   -0.0233    1.1459 N   0  0  0  0  0  0  0  0  0  0  0  0
   -1.9917    0.9822    1.9458 C   0  0  0  0  0  0  0  0  0  0  0  0
   -3.2656    1.5099    2.0014 C   0  0  0  0  0  0  0  0  0  0  0  0
   -4.2452    0.9683    1.1728 C   0  0  0  0  0  0  0  0  0  0  0  0
   -3.8954   -0.0659    0.3321 C   0  0  0  0  0  0  0  0  0  0  0  0
   -4.6407   -0.4954   -0.3164 H   0  0  0  0  0  0  0  0  0  0  0  0
   -3.4918    2.3161    2.6803 H   0  0  0  0  0  0  0  0  0  0  0  0
   -1.1965    1.3700    2.5640 H   0  0  0  0  0  0  0  0  0  0  0  0
    0.4215   -0.8165    0.9133 Ir  0  0  0  0  0  0  0  0  0  0  0  0
    0.8726   -2.2303    1.5405 H   0  0  0  0  0  0  0  0  0  0  0  0
    0.2873    0.6738   -0.5473 B   0  0  0  0  0  0  0  0  0  0  0  0
   -0.4108    0.4343   -1.7185 O   0  0  0  0  0  0  0  0  0  0  0  0
   -0.6597    1.6676   -2.4017 C   0  0  0  0  0  0  0  0  0  0  0  0
   -0.5004    1.4695   -3.9069 C   0  0  0  0  0  0  0  0  0  0  0  0
    0.4526    1.0051   -4.1366 H   0  0  0  0  0  0  0  0  0  0  0  0
   -0.5740    2.4259   -4.4184 H   0  0  0  0  0  0  0  0  0  0  0  0
   -1.2921    0.8168   -4.2670 H   0  0  0  0  0  0  0  0  0  0  0  0
   -2.1123    2.0640   -2.0984 C   0  0  0  0  0  0  0  0  0  0  0  0
   -2.3921    2.9688   -2.6298 H   0  0  0  0  0  0  0  0  0  0  0  0
   -2.7668    1.2524   -2.4111 H   0  0  0  0  0  0  0  0  0  0  0  0
   -2.2461    2.2117   -1.0286 H   0  0  0  0  0  0  0  0  0  0  0  0
    0.3788    2.6356   -1.7466 C   0  0  0  0  0  0  0  0  0  0  0  0
    0.6379    2.0035   -0.4861 O   0  0  0  0  0  0  0  0  0  0  0  0
    1.7099    2.6702   -2.5074 C   0  0  0  0  0  0  0  0  0  0  0  0
    2.0886    1.6564   -2.6137 H   0  0  0  0  0  0  0  0  0  0  0  0
    1.5974    3.1388   -3.4808 H   0  0  0  0  0  0  0  0  0  0  0  0
    2.4317    3.2352   -1.9223 H   0  0  0  0  0  0  0  0  0  0  0  0
   -0.1194    4.0620   -1.5214 C   0  0  0  0  0  0  0  0  0  0  0  0
   -0.9505    4.0829   -0.8228 H   0  0  0  0  0  0  0  0  0  0  0  0
    0.6877    4.6606   -1.1057 H   0  0  0  0  0  0  0  0  0  0  0  0
   -0.4294    4.5018   -2.4658 H   0  0  0  0  0  0  0  0  0  0  0  0
    1.4920    0.6982    1.8670 B   0  0  0  0  0  0  0  0  0  0  0  0
    2.8255    1.0109    1.7613 O   0  0  0  0  0  0  0  0  0  0  0  0
    3.1059    2.2532    2.4226 C   0  0  0  0  0  0  0  0  0  0  0  0
    4.4122    2.1275    3.2058 C   0  0  0  0  0  0  0  0  0  0  0  0
    4.3790    1.2827    3.8849 H   0  0  0  0  0  0  0  0  0  0  0  0
    5.2293    1.9684    2.5069 H   0  0  0  0  0  0  0  0  0  0  0  0
    4.6024    3.0392    3.7652 H   0  0  0  0  0  0  0  0  0  0  0  0
    3.2719    3.3067    1.3214 C   0  0  0  0  0  0  0  0  0  0  0  0
    3.4540    4.2933    1.7367 H   0  0  0  0  0  0  0  0  0  0  0  0
    4.1161    3.0239    0.6968 H   0  0  0  0  0  0  0  0  0  0  0  0
    2.3812    3.3116    0.6992 H   0  0  0  0  0  0  0  0  0  0  0  0
    1.8279    2.4803    3.3055 C   0  0  0  0  0  0  0  0  0  0  0  0
    0.8765    1.5738    2.7321 O   0  0  0  0  0  0  0  0  0  0  0  0
    1.2556    3.8970    3.2532 C   0  0  0  0  0  0  0  0  0  0  0  0
    0.9471    4.1493    2.2441 H   0  0  0  0  0  0  0  0  0  0  0  0
    0.3829    3.9493    3.8998 H   0  0  0  0  0  0  0  0  0  0  0  0
    1.9923    4.6146    3.6033 H   0  0  0  0  0  0  0  0  0  0  0  0
    2.0145    2.0729    4.7724 C   0  0  0  0  0  0  0  0  0  0  0  0
    2.3383    1.0388    4.8380 H   0  0  0  0  0  0  0  0  0  0  0  0
    2.7298    2.7202    5.2699 H   0  0  0  0  0  0  0  0  0  0  0  0
    1.0562    2.1506    5.2808 H   0  0  0  0  0  0  0  0  0  0  0  0
    2.2782   -1.3309    0.1741 B   0  0  0  0  0  0  0  0  0  0  0  0
    3.2406   -2.1406    0.7263 O   0  0  0  0  0  0  0  0  0  0  0  0
    4.4654   -2.0310   -0.0102 C   0  0  0  0  0  0  0  0  0  0  0  0
    5.3748   -1.0992    0.7973 C   0  0  0  0  0  0  0  0  0  0  0  0
    4.8574   -0.1591    0.9676 H   0  0  0  0  0  0  0  0  0  0  0  0
    5.5619   -1.5630    1.7622 H   0  0  0  0  0  0  0  0  0  0  0  0
    6.3211   -0.9309    0.2930 H   0  0  0  0  0  0  0  0  0  0  0  0
    5.1205   -3.4064   -0.1157 C   0  0  0  0  0  0  0  0  0  0  0  0
    5.3503   -3.7569    0.8871 H   0  0  0  0  0  0  0  0  0  0  0  0
    6.0397   -3.3382   -0.6906 H   0  0  0  0  0  0  0  0  0  0  0  0
    4.4569   -4.1293   -0.5773 H   0  0  0  0  0  0  0  0  0  0  0  0
    3.9998   -1.4047   -1.3724 C   0  0  0  0  0  0  0  0  0  0  0  0
    2.7087   -0.8669   -1.0500 O   0  0  0  0  0  0  0  0  0  0  0  0
    4.8863   -0.2768   -1.8987 C   0  0  0  0  0  0  0  0  0  0  0  0
    5.9013   -0.6317   -2.0530 H   0  0  0  0  0  0  0  0  0  0  0  0
    4.4878    0.0721   -2.8482 H   0  0  0  0  0  0  0  0  0  0  0  0
    4.8872    0.5576   -1.2058 H   0  0  0  0  0  0  0  0  0  0  0  0
    3.8003   -2.4441   -2.4835 C   0  0  0  0  0  0  0  0  0  0  0  0
    3.1422   -3.2384   -2.1427 H   0  0  0  0  0  0  0  0  0  0  0  0
    3.3283   -1.9578   -3.3338 H   0  0  0  0  0  0  0  0  0  0  0  0
    4.7508   -2.8644   -2.7978 H   0  0  0  0  0  0  0  0  0  0  0  0
   -3.1711   -3.7317   -3.0038 H   0  0  0  0  0  0  0  0  0  0  0  0
   -5.2558    1.3478    1.1870 H   0  0  0  0  0  0  0  0  0  0  0  0
    0.2359   -1.6814    2.9603 C   0  0  0  0  0  0  0  0  0  0  0  0
   -1.0823   -1.9738    3.3064 C   0  0  0  0  0  0  0  0  0  0  0  0
    1.1677   -1.6892    4.0147 C   0  0  0  0  0  0  0  0  0  0  0  0
   -1.4579   -2.0694    4.6396 C   0  0  0  0  0  0  0  0  0  0  0  0
   -1.8330   -2.1434    2.5463 H   0  0  0  0  0  0  0  0  0  0  0  0
    0.8011   -1.7667    5.2887 N   0  0  0  0  0  0  0  0  0  0  0  0
    2.6545   -1.6731    3.8034 C   0  0  0  0  0  0  0  0  0  0  0  0
   -0.4762   -1.9136    5.6000 C   0  0  0  0  0  0  0  0  0  0  0  0
   -2.4820   -2.2738    4.9164 H   0  0  0  0  0  0  0  0  0  0  0  0
    3.2604   -3.0435    3.6248 C   0  0  0  0  0  0  0  0  0  0  0  0
    3.1181   -1.2137    4.6791 H   0  0  0  0  0  0  0  0  0  0  0  0
    2.8906   -1.0900    2.9127 H   0  0  0  0  0  0  0  0  0  0  0  0
   -0.6994   -1.9483    6.6590 H   0  0  0  0  0  0  0  0  0  0  0  0
    2.5278   -4.1478    3.2142 C   0  0  0  0  0  0  0  0  0  0  0  0
    4.6225   -3.2069    3.8560 C   0  0  0  0  0  0  0  0  0  0  0  0
    3.1397   -5.3759    3.0273 C   0  0  0  0  0  0  0  0  0  0  0  0
    1.4670   -4.0520    3.0396 H   0  0  0  0  0  0  0  0  0  0  0  0
    5.2394   -4.4299    3.6647 C   0  0  0  0  0  0  0  0  0  0  0  0
    5.2079   -2.3611    4.1882 H   0  0  0  0  0  0  0  0  0  0  0  0
    4.4981   -5.5226    3.2462 C   0  0  0  0  0  0  0  0  0  0  0  0
    2.5511   -6.2234    2.7053 H   0  0  0  0  0  0  0  0  0  0  0  0
    6.3011   -4.5321    3.8413 H   0  0  0  0  0  0  0  0  0  0  0  0
    4.9754   -6.4797    3.0936 H   0  0  0  0  0  0  0  0  0  0  0  0
  1  2  4  0  0  0  0
  2  3  4  0  0  0  0
  3  4  4  0  0  0  0
  4  5  4  0  0  0  0
  1  6  4  0  0  0  0
  5  6  4  0  0  0  0
  6  7  1  0  0  0  0
  5  8  1  0  0  0  0
  3  9  1  0  0  0  0
  2 10  1  0  0  0  0
 10 11  4  0  0  0  0
 11 12  4  0  0  0  0
 12 13  4  0  0  0  0
 13 14  4  0  0  0  0
 10 15  4  0  0  0  0
 14 15  4  0  0  0  0
 15 16  1  0  0  0  0
 13 17  1  0  0  0  0
 12 18  1  0  0  0  0
  1 19  1  0  0  0  0
 11 19  1  0  0  0  0
 19 20  1  0  0  0  0
 19 21  1  0  0  0  0
 21 22  1  0  0  0  0
 22 23  1  0  0  0  0
 23 24  1  0  0  0  0
 24 25  1  0  0  0  0
 24 26  1  0  0  0  0
 24 27  1  0  0  0  0
 23 28  1  0  0  0  0
 28 29  1  0  0  0  0
 28 30  1  0  0  0  0
 28 31  1  0  0  0  0
 23 32  1  0  0  0  0
 21 33  1  0  0  0  0
 32 33  1  0  0  0  0
 32 34  1  0  0  0  0
 34 35  1  0  0  0  0
 34 36  1  0  0  0  0
 34 37  1  0  0  0  0
 32 38  1  0  0  0  0
 38 39  1  0  0  0  0
 38 40  1  0  0  0  0
 38 41  1  0  0  0  0
 19 42  1  0  0  0  0
 42 43  1  0  0  0  0
 43 44  1  0  0  0  0
 44 45  1  0  0  0  0
 45 46  1  0  0  0  0
 45 47  1  0  0  0  0
 45 48  1  0  0  0  0
 44 49  1  0  0  0  0
 49 50  1  0  0  0  0
 49 51  1  0  0  0  0
 49 52  1  0  0  0  0
 44 53  1  0  0  0  0
 42 54  1  0  0  0  0
 53 54  1  0  0  0  0
 53 55  1  0  0  0  0
 55 56  1  0  0  0  0
 55 57  1  0  0  0  0
 55 58  1  0  0  0  0
 53 59  1  0  0  0  0
 59 60  1  0  0  0  0
 59 61  1  0  0  0  0
 59 62  1  0  0  0  0
 19 63  1  0  0  0  0
 63 64  1  0  0  0  0
 64 65  1  0  0  0  0
 65 66  1  0  0  0  0
 66 67  1  0  0  0  0
 66 68  1  0  0  0  0
 66 69  1  0  0  0  0
 65 70  1  0  0  0  0
 70 71  1  0  0  0  0
 70 72  1  0  0  0  0
 70 73  1  0  0  0  0
 65 74  1  0  0  0  0
 63 75  1  0  0  0  0
 74 75  1  0  0  0  0
 74 76  1  0  0  0  0
 76 77  1  0  0  0  0
 76 78  1  0  0  0  0
 76 79  1  0  0  0  0
 74 80  1  0  0  0  0
 80 81  1  0  0  0  0
 80 82  1  0  0  0  0
 80 83  1  0  0  0  0
  4 84  1  0  0  0  0
 14 85  1  0  0  0  0
 19 86  1  0  0  0  0
 20 86  1  0  0  0  0
 86 87  4  0  0  0  0
 86 88  4  0  0  0  0
 87 89  4  0  0  0  0
 87 90  1  0  0  0  0
 88 91  4  0  0  0  0
 88 92  1  0  0  0  0
 89 93  4  0  0  0  0
 91 93  4  0  0  0  0
 89 94  1  0  0  0  0
 92 95  1  0  0  0  0
 92 96  1  0  0  0  0
 92 97  1  0  0  0  0
 93 98  1  0  0  0  0
 95 99  4  0  0  0  0
 95100  4  0  0  0  0
 99101  4  0  0  0  0
 99102  1  0  0  0  0
100103  4  0  0  0  0
100104  1  0  0  0  0
101105  4  0  0  0  0
103105  4  0  0  0  0
101106  1  0  0  0  0
103107  1  0  0  0  0
105108  1  0  0  0  0
M  END
