
  xtb     01142215233D
 xtb: 6.4.1 (1a32961)
 12 12  0     0  0            999 V2000
   -0.7703   -1.9016   -0.0026 C   0  0  0  0  0  0  0  0  0  0  0  0
   -1.8306   -1.0102    0.0060 C   0  0  0  0  0  0  0  0  0  0  0  0
   -1.5479    0.3430    0.0133 C   0  0  0  0  0  0  0  0  0  0  0  0
   -2.5723    1.2294    0.0224 F   0  0  0  0  0  0  0  0  0  0  0  0
   -0.2553    0.8349    0.0124 C   0  0  0  0  0  0  0  0  0  0  0  0
    0.7836   -0.0822    0.0037 C   0  0  0  0  0  0  0  0  0  0  0  0
    2.4170    0.4970    0.0024 Cl  0  0  0  0  0  0  0  0  0  0  0  0
    0.5381   -1.4467   -0.0036 C   0  0  0  0  0  0  0  0  0  0  0  0
   -0.9650   -2.9619   -0.0088 H   0  0  0  0  0  0  0  0  0  0  0  0
   -2.8547   -1.3457    0.0070 H   0  0  0  0  0  0  0  0  0  0  0  0
   -0.0751    1.8972    0.0187 H   0  0  0  0  0  0  0  0  0  0  0  0
    1.3619   -2.1414   -0.0106 H   0  0  0  0  0  0  0  0  0  0  0  0
  1  2  4  0  0  0  0
  2  3  4  0  0  0  0
  3  4  1  0  0  0  0
  3  5  4  0  0  0  0
  5  6  4  0  0  0  0
  6  7  1  0  0  0  0
  1  8  4  0  0  0  0
  6  8  4  0  0  0  0
  1  9  1  0  0  0  0
  2 10  1  0  0  0  0
  5 11  1  0  0  0  0
  8 12  1  0  0  0  0
M  END
