
  xtb     10082107253D
 xtb: 6.4.0 (f63f532)
111119  0     0  0            999 V2000
   -0.9824   -1.8916   -0.4275 N   0  0  0  0  0  0  0  0  0  0  0  0
   -2.1408   -1.2595   -0.7045 C   0  0  0  0  0  0  0  0  0  0  0  0
   -3.0364   -1.7804   -1.6477 C   0  0  0  0  0  0  0  0  0  0  0  0
   -2.7349   -2.9473   -2.3102 C   0  0  0  0  0  0  0  0  0  0  0  0
   -1.5291   -3.5848   -2.0218 C   0  0  0  0  0  0  0  0  0  0  0  0
   -0.6999   -3.0165   -1.0801 C   0  0  0  0  0  0  0  0  0  0  0  0
    0.2419   -3.4804   -0.8197 H   0  0  0  0  0  0  0  0  0  0  0  0
   -1.2527   -4.5019   -2.5166 H   0  0  0  0  0  0  0  0  0  0  0  0
   -3.9687   -1.2798   -1.8498 H   0  0  0  0  0  0  0  0  0  0  0  0
   -2.3901   -0.0249    0.0206 C   0  0  0  0  0  0  0  0  0  0  0  0
   -1.4727    0.3159    0.9588 N   0  0  0  0  0  0  0  0  0  0  0  0
   -1.6670    1.4359    1.6575 C   0  0  0  0  0  0  0  0  0  0  0  0
   -2.7436    2.2751    1.4693 C   0  0  0  0  0  0  0  0  0  0  0  0
   -3.6844    1.9476    0.4942 C   0  0  0  0  0  0  0  0  0  0  0  0
   -3.4977    0.7920   -0.2323 C   0  0  0  0  0  0  0  0  0  0  0  0
   -4.2088    0.5245   -0.9961 H   0  0  0  0  0  0  0  0  0  0  0  0
   -2.8532    3.1621    2.0723 H   0  0  0  0  0  0  0  0  0  0  0  0
   -0.9090    1.6564    2.3925 H   0  0  0  0  0  0  0  0  0  0  0  0
    0.4215   -0.8165    0.9133 Ir  0  0  0  0  0  0  0  0  0  0  0  0
    0.8726   -2.2303    1.5405 H   0  0  0  0  0  0  0  0  0  0  0  0
    0.5496    0.6184   -0.6094 B   0  0  0  0  0  0  0  0  0  0  0  0
    0.0253    0.3430   -1.8562 O   0  0  0  0  0  0  0  0  0  0  0  0
    0.0716    1.5101   -2.6842 C   0  0  0  0  0  0  0  0  0  0  0  0
    0.5155    1.1113   -4.0902 C   0  0  0  0  0  0  0  0  0  0  0  0
    1.4343    0.5356   -4.0519 H   0  0  0  0  0  0  0  0  0  0  0  0
    0.6603    1.9956   -4.7053 H   0  0  0  0  0  0  0  0  0  0  0  0
   -0.2549    0.4909   -4.5422 H   0  0  0  0  0  0  0  0  0  0  0  0
   -1.3525    2.0788   -2.7529 C   0  0  0  0  0  0  0  0  0  0  0  0
   -1.3984    2.9371   -3.4168 H   0  0  0  0  0  0  0  0  0  0  0  0
   -2.0180    1.3036   -3.1278 H   0  0  0  0  0  0  0  0  0  0  0  0
   -1.6941    2.3643   -1.7606 H   0  0  0  0  0  0  0  0  0  0  0  0
    1.0649    2.4429   -1.9122 C   0  0  0  0  0  0  0  0  0  0  0  0
    1.0332    1.9057   -0.5820 O   0  0  0  0  0  0  0  0  0  0  0  0
    2.5074    2.3065   -2.4137 C   0  0  0  0  0  0  0  0  0  0  0  0
    2.8142    1.2677   -2.3243 H   0  0  0  0  0  0  0  0  0  0  0  0
    2.6050    2.6501   -3.4394 H   0  0  0  0  0  0  0  0  0  0  0  0
    3.1588    2.9023   -1.7789 H   0  0  0  0  0  0  0  0  0  0  0  0
    0.6748    3.9199   -1.8824 C   0  0  0  0  0  0  0  0  0  0  0  0
   -0.2708    4.0685   -1.3703 H   0  0  0  0  0  0  0  0  0  0  0  0
    1.4395    4.4778   -1.3472 H   0  0  0  0  0  0  0  0  0  0  0  0
    0.6043    4.3073   -2.8955 H   0  0  0  0  0  0  0  0  0  0  0  0
    1.6623    0.5552    1.8947 B   0  0  0  0  0  0  0  0  0  0  0  0
    3.0392    0.5571    1.9114 O   0  0  0  0  0  0  0  0  0  0  0  0
    3.5264    1.7785    2.4838 C   0  0  0  0  0  0  0  0  0  0  0  0
    4.7457    1.4898    3.3585 C   0  0  0  0  0  0  0  0  0  0  0  0
    4.5303    0.7105    4.0819 H   0  0  0  0  0  0  0  0  0  0  0  0
    5.5646    1.1503    2.7290 H   0  0  0  0  0  0  0  0  0  0  0  0
    5.0561    2.3929    3.8770 H   0  0  0  0  0  0  0  0  0  0  0  0
    3.9358    2.6765    1.3106 C   0  0  0  0  0  0  0  0  0  0  0  0
    4.3136    3.6355    1.6525 H   0  0  0  0  0  0  0  0  0  0  0  0
    4.7127    2.1713    0.7413 H   0  0  0  0  0  0  0  0  0  0  0  0
    3.0782    2.8124    0.6571 H   0  0  0  0  0  0  0  0  0  0  0  0
    2.2733    2.3191    3.2533 C   0  0  0  0  0  0  0  0  0  0  0  0
    1.1896    1.6168    2.6283 O   0  0  0  0  0  0  0  0  0  0  0  0
    2.0405    3.8232    3.1230 C   0  0  0  0  0  0  0  0  0  0  0  0
    1.8435    4.0912    2.0904 H   0  0  0  0  0  0  0  0  0  0  0  0
    1.1747    4.1015    3.7185 H   0  0  0  0  0  0  0  0  0  0  0  0
    2.9063    4.3703    3.4864 H   0  0  0  0  0  0  0  0  0  0  0  0
    2.2659    1.9313    4.7369 C   0  0  0  0  0  0  0  0  0  0  0  0
    2.3736    0.8551    4.8385 H   0  0  0  0  0  0  0  0  0  0  0  0
    3.0577    2.4399    5.2782 H   0  0  0  0  0  0  0  0  0  0  0  0
    1.3067    2.2112    5.1658 H   0  0  0  0  0  0  0  0  0  0  0  0
    2.2782   -1.3309    0.1741 B   0  0  0  0  0  0  0  0  0  0  0  0
    3.0137   -2.4141    0.6131 O   0  0  0  0  0  0  0  0  0  0  0  0
    4.2901   -2.4507   -0.0372 C   0  0  0  0  0  0  0  0  0  0  0  0
    5.3059   -1.8806    0.9582 C   0  0  0  0  0  0  0  0  0  0  0  0
    4.9831   -0.8879    1.2587 H   0  0  0  0  0  0  0  0  0  0  0  0
    5.3134   -2.5132    1.8424 H   0  0  0  0  0  0  0  0  0  0  0  0
    6.3054   -1.8494    0.5356 H   0  0  0  0  0  0  0  0  0  0  0  0
    4.6553   -3.8979   -0.3657 C   0  0  0  0  0  0  0  0  0  0  0  0
    4.7701   -4.4493    0.5637 H   0  0  0  0  0  0  0  0  0  0  0  0
    5.5925   -3.9309   -0.9142 H   0  0  0  0  0  0  0  0  0  0  0  0
    3.8771   -4.3790   -0.9485 H   0  0  0  0  0  0  0  0  0  0  0  0
    4.0658   -1.5237   -1.2811 C   0  0  0  0  0  0  0  0  0  0  0  0
    2.9164   -0.7517   -0.8998 O   0  0  0  0  0  0  0  0  0  0  0  0
    5.2319   -0.5904   -1.6002 C   0  0  0  0  0  0  0  0  0  0  0  0
    6.1359   -1.1679   -1.7739 H   0  0  0  0  0  0  0  0  0  0  0  0
    5.0031   -0.0211   -2.4977 H   0  0  0  0  0  0  0  0  0  0  0  0
    5.3933    0.1085   -0.7869 H   0  0  0  0  0  0  0  0  0  0  0  0
    3.6819   -2.3002   -2.5487 C   0  0  0  0  0  0  0  0  0  0  0  0
    2.8278   -2.9417   -2.3486 H   0  0  0  0  0  0  0  0  0  0  0  0
    3.3904   -1.5887   -3.3180 H   0  0  0  0  0  0  0  0  0  0  0  0
    4.5153   -2.8930   -2.9133 H   0  0  0  0  0  0  0  0  0  0  0  0
   -3.4198   -3.3611   -3.0348 H   0  0  0  0  0  0  0  0  0  0  0  0
   -4.5380    2.5825    0.3103 H   0  0  0  0  0  0  0  0  0  0  0  0
    0.2359   -1.6814    2.9603 C   0  0  0  0  0  0  0  0  0  0  0  0
   -0.9968   -2.0271    3.5287 C   0  0  0  0  0  0  0  0  0  0  0  0
    1.3403   -1.6159    3.8197 C   0  0  0  0  0  0  0  0  0  0  0  0
   -2.2415   -2.2719    2.7232 C   0  0  0  0  0  0  0  0  0  0  0  0
   -1.1002   -2.1758    4.9109 C   0  0  0  0  0  0  0  0  0  0  0  0
    1.2272   -1.7722    5.1890 C   0  0  0  0  0  0  0  0  0  0  0  0
    2.3167   -1.4476    3.3909 H   0  0  0  0  0  0  0  0  0  0  0  0
   -2.2634   -3.6710    2.1052 C   0  0  0  0  0  0  0  0  0  0  0  0
   -3.1240   -2.1563    3.3546 H   0  0  0  0  0  0  0  0  0  0  0  0
   -2.3225   -1.5475    1.9210 H   0  0  0  0  0  0  0  0  0  0  0  0
   -0.0109   -2.0398    5.7478 C   0  0  0  0  0  0  0  0  0  0  0  0
   -2.0665   -2.4163    5.3346 H   0  0  0  0  0  0  0  0  0  0  0  0
    2.1034   -1.7015    5.8191 H   0  0  0  0  0  0  0  0  0  0  0  0
   -3.4326   -3.8554    1.1814 C   0  0  0  0  0  0  0  0  0  0  0  0
   -1.3397   -3.8429    1.5477 H   0  0  0  0  0  0  0  0  0  0  0  0
   -2.3120   -4.4274    2.8944 H   0  0  0  0  0  0  0  0  0  0  0  0
   -0.1222   -2.1622    6.8156 H   0  0  0  0  0  0  0  0  0  0  0  0
   -4.3474   -2.8952    1.1462 N   0  0  0  0  0  0  0  0  0  0  0  0
   -3.5446   -5.0009    0.3919 C   0  0  0  0  0  0  0  0  0  0  0  0
   -5.3909   -3.0319    0.3452 C   0  0  0  0  0  0  0  0  0  0  0  0
   -4.6373   -5.1392   -0.4428 C   0  0  0  0  0  0  0  0  0  0  0  0
   -2.7819   -5.7630    0.4409 H   0  0  0  0  0  0  0  0  0  0  0  0
   -5.5911   -4.1308   -0.4712 C   0  0  0  0  0  0  0  0  0  0  0  0
   -6.0982   -2.2119    0.3694 H   0  0  0  0  0  0  0  0  0  0  0  0
   -4.7469   -6.0167   -1.0637 H   0  0  0  0  0  0  0  0  0  0  0  0
   -6.4604   -4.1972   -1.1065 H   0  0  0  0  0  0  0  0  0  0  0  0
  1  2  4  0  0  0  0
  2  3  4  0  0  0  0
  3  4  4  0  0  0  0
  4  5  4  0  0  0  0
  1  6  4  0  0  0  0
  5  6  4  0  0  0  0
  6  7  1  0  0  0  0
  5  8  1  0  0  0  0
  3  9  1  0  0  0  0
  2 10  1  0  0  0  0
 10 11  4  0  0  0  0
 11 12  4  0  0  0  0
 12 13  4  0  0  0  0
 13 14  4  0  0  0  0
 10 15  4  0  0  0  0
 14 15  4  0  0  0  0
 15 16  1  0  0  0  0
 13 17  1  0  0  0  0
 12 18  1  0  0  0  0
  1 19  1  0  0  0  0
 11 19  1  0  0  0  0
 19 20  1  0  0  0  0
 19 21  1  0  0  0  0
 21 22  1  0  0  0  0
 22 23  1  0  0  0  0
 23 24  1  0  0  0  0
 24 25  1  0  0  0  0
 24 26  1  0  0  0  0
 24 27  1  0  0  0  0
 23 28  1  0  0  0  0
 28 29  1  0  0  0  0
 28 30  1  0  0  0  0
 28 31  1  0  0  0  0
 23 32  1  0  0  0  0
 21 33  1  0  0  0  0
 32 33  1  0  0  0  0
 32 34  1  0  0  0  0
 34 35  1  0  0  0  0
 34 36  1  0  0  0  0
 34 37  1  0  0  0  0
 32 38  1  0  0  0  0
 38 39  1  0  0  0  0
 38 40  1  0  0  0  0
 38 41  1  0  0  0  0
 19 42  1  0  0  0  0
 42 43  1  0  0  0  0
 43 44  1  0  0  0  0
 44 45  1  0  0  0  0
 45 46  1  0  0  0  0
 45 47  1  0  0  0  0
 45 48  1  0  0  0  0
 44 49  1  0  0  0  0
 49 50  1  0  0  0  0
 49 51  1  0  0  0  0
 49 52  1  0  0  0  0
 44 53  1  0  0  0  0
 42 54  1  0  0  0  0
 53 54  1  0  0  0  0
 53 55  1  0  0  0  0
 55 56  1  0  0  0  0
 55 57  1  0  0  0  0
 55 58  1  0  0  0  0
 53 59  1  0  0  0  0
 59 60  1  0  0  0  0
 59 61  1  0  0  0  0
 59 62  1  0  0  0  0
 19 63  1  0  0  0  0
 63 64  1  0  0  0  0
 64 65  1  0  0  0  0
 65 66  1  0  0  0  0
 66 67  1  0  0  0  0
 66 68  1  0  0  0  0
 66 69  1  0  0  0  0
 65 70  1  0  0  0  0
 70 71  1  0  0  0  0
 70 72  1  0  0  0  0
 70 73  1  0  0  0  0
 65 74  1  0  0  0  0
 63 75  1  0  0  0  0
 74 75  1  0  0  0  0
 74 76  1  0  0  0  0
 76 77  1  0  0  0  0
 76 78  1  0  0  0  0
 76 79  1  0  0  0  0
 74 80  1  0  0  0  0
 80 81  1  0  0  0  0
 80 82  1  0  0  0  0
 80 83  1  0  0  0  0
  4 84  1  0  0  0  0
 14 85  1  0  0  0  0
 19 86  1  0  0  0  0
 20 86  1  0  0  0  0
 86 87  4  0  0  0  0
 86 88  4  0  0  0  0
 87 89  1  0  0  0  0
 87 90  4  0  0  0  0
 88 91  4  0  0  0  0
 88 92  1  0  0  0  0
 89 93  1  0  0  0  0
 89 94  1  0  0  0  0
 89 95  1  0  0  0  0
 90 96  4  0  0  0  0
 91 96  4  0  0  0  0
 90 97  1  0  0  0  0
 91 98  1  0  0  0  0
 93 99  1  0  0  0  0
 93100  1  0  0  0  0
 93101  1  0  0  0  0
 96102  1  0  0  0  0
 99103  4  0  0  0  0
 99104  4  0  0  0  0
103105  4  0  0  0  0
104106  4  0  0  0  0
104107  1  0  0  0  0
105108  4  0  0  0  0
106108  4  0  0  0  0
105109  1  0  0  0  0
106110  1  0  0  0  0
108111  1  0  0  0  0
M  END
