
  xtb     01142214163D
 xtb: 6.4.1 (1a32961)
100108  0     0  0            999 V2000
   -0.8956   -2.0217   -0.3862 N   0  0  0  0  0  0  0  0  0  0  0  0
   -2.1587   -1.5748   -0.5323 C   0  0  0  0  0  0  0  0  0  0  0  0
   -3.0283   -2.1683   -1.4576 C   0  0  0  0  0  0  0  0  0  0  0  0
   -2.5911   -3.2142   -2.2389 C   0  0  0  0  0  0  0  0  0  0  0  0
   -1.2802   -3.6609   -2.0810 C   0  0  0  0  0  0  0  0  0  0  0  0
   -0.4849   -3.0340   -1.1460 C   0  0  0  0  0  0  0  0  0  0  0  0
    0.5356   -3.3512   -0.9830 H   0  0  0  0  0  0  0  0  0  0  0  0
   -0.8952   -4.4774   -2.6701 H   0  0  0  0  0  0  0  0  0  0  0  0
   -4.0398   -1.8125   -1.5659 H   0  0  0  0  0  0  0  0  0  0  0  0
   -2.5468   -0.4560    0.3142 C   0  0  0  0  0  0  0  0  0  0  0  0
   -1.6042    0.0144    1.1603 N   0  0  0  0  0  0  0  0  0  0  0  0
   -1.9189    1.0263    1.9660 C   0  0  0  0  0  0  0  0  0  0  0  0
   -3.1574    1.6331    1.9809 C   0  0  0  0  0  0  0  0  0  0  0  0
   -4.1345    1.1727    1.1006 C   0  0  0  0  0  0  0  0  0  0  0  0
   -3.8212    0.1245    0.2640 C   0  0  0  0  0  0  0  0  0  0  0  0
   -4.5635   -0.2436   -0.4249 H   0  0  0  0  0  0  0  0  0  0  0  0
   -3.3595    2.4426    2.6635 H   0  0  0  0  0  0  0  0  0  0  0  0
   -1.1252    1.3569    2.6179 H   0  0  0  0  0  0  0  0  0  0  0  0
    0.4215   -0.8165    0.9133 Ir  0  0  0  0  0  0  0  0  0  0  0  0
    0.8726   -2.2303    1.5405 H   0  0  0  0  0  0  0  0  0  0  0  0
    0.3828    0.6398   -0.5839 B   0  0  0  0  0  0  0  0  0  0  0  0
   -0.2963    0.3801   -1.7635 O   0  0  0  0  0  0  0  0  0  0  0  0
   -0.4097    1.5779   -2.5377 C   0  0  0  0  0  0  0  0  0  0  0  0
   -0.2194    1.2572   -4.0181 C   0  0  0  0  0  0  0  0  0  0  0  0
    0.6895    0.6854   -4.1733 H   0  0  0  0  0  0  0  0  0  0  0  0
   -0.1775    2.1762   -4.5971 H   0  0  0  0  0  0  0  0  0  0  0  0
   -1.0597    0.6608   -4.3660 H   0  0  0  0  0  0  0  0  0  0  0  0
   -1.8282    2.1233   -2.3158 C   0  0  0  0  0  0  0  0  0  0  0  0
   -2.0065    3.0118   -2.9145 H   0  0  0  0  0  0  0  0  0  0  0  0
   -2.5447    1.3544   -2.5988 H   0  0  0  0  0  0  0  0  0  0  0  0
   -1.9798    2.3523   -1.2627 H   0  0  0  0  0  0  0  0  0  0  0  0
    0.6927    2.4919   -1.9109 C   0  0  0  0  0  0  0  0  0  0  0  0
    0.8420    1.9387   -0.5971 O   0  0  0  0  0  0  0  0  0  0  0  0
    2.0492    2.3375   -2.6100 C   0  0  0  0  0  0  0  0  0  0  0  0
    2.3319    1.2874   -2.6085 H   0  0  0  0  0  0  0  0  0  0  0  0
    2.0217    2.7261   -3.6241 H   0  0  0  0  0  0  0  0  0  0  0  0
    2.7979    2.8828   -2.0401 H   0  0  0  0  0  0  0  0  0  0  0  0
    0.3295    3.9726   -1.8191 C   0  0  0  0  0  0  0  0  0  0  0  0
   -0.5238    4.1287   -1.1665 H   0  0  0  0  0  0  0  0  0  0  0  0
    1.1742    4.5218   -1.4100 H   0  0  0  0  0  0  0  0  0  0  0  0
    0.1050    4.3624   -2.8089 H   0  0  0  0  0  0  0  0  0  0  0  0
    1.5539    0.6490    1.8778 B   0  0  0  0  0  0  0  0  0  0  0  0
    2.9235    0.7935    1.8928 O   0  0  0  0  0  0  0  0  0  0  0  0
    3.2795    2.0659    2.4509 C   0  0  0  0  0  0  0  0  0  0  0  0
    4.5309    1.9225    3.3160 C   0  0  0  0  0  0  0  0  0  0  0  0
    4.4104    1.1318    4.0489 H   0  0  0  0  0  0  0  0  0  0  0  0
    5.3763    1.6696    2.6812 H   0  0  0  0  0  0  0  0  0  0  0  0
    4.7429    2.8603    3.8226 H   0  0  0  0  0  0  0  0  0  0  0  0
    3.5768    2.9945    1.2673 C   0  0  0  0  0  0  0  0  0  0  0  0
    3.8420    3.9940    1.5994 H   0  0  0  0  0  0  0  0  0  0  0  0
    4.4058    2.5781    0.6992 H   0  0  0  0  0  0  0  0  0  0  0  0
    2.7071    3.0233    0.6160 H   0  0  0  0  0  0  0  0  0  0  0  0
    1.9830    2.4742    3.2292 C   0  0  0  0  0  0  0  0  0  0  0  0
    0.9762    1.6638    2.6107 O   0  0  0  0  0  0  0  0  0  0  0  0
    1.5943    3.9465    3.1046 C   0  0  0  0  0  0  0  0  0  0  0  0
    1.3724    4.1971    2.0727 H   0  0  0  0  0  0  0  0  0  0  0  0
    0.7027    4.1301    3.6992 H   0  0  0  0  0  0  0  0  0  0  0  0
    2.3972    4.5798    3.4724 H   0  0  0  0  0  0  0  0  0  0  0  0
    2.0262    2.0868    4.7132 C   0  0  0  0  0  0  0  0  0  0  0  0
    2.2512    1.0287    4.8117 H   0  0  0  0  0  0  0  0  0  0  0  0
    2.7611    2.6780    5.2511 H   0  0  0  0  0  0  0  0  0  0  0  0
    1.0443    2.2611    5.1470 H   0  0  0  0  0  0  0  0  0  0  0  0
    2.2782   -1.3309    0.1741 B   0  0  0  0  0  0  0  0  0  0  0  0
    3.1223   -2.2880    0.6993 O   0  0  0  0  0  0  0  0  0  0  0  0
    4.4055   -2.2267    0.0659 C   0  0  0  0  0  0  0  0  0  0  0  0
    5.3376   -1.4999    1.0419 C   0  0  0  0  0  0  0  0  0  0  0  0
    4.8990   -0.5391    1.2960 H   0  0  0  0  0  0  0  0  0  0  0  0
    5.4062   -2.0886    1.9532 H   0  0  0  0  0  0  0  0  0  0  0  0
    6.3323   -1.3727    0.6261 H   0  0  0  0  0  0  0  0  0  0  0  0
    4.9259   -3.6451   -0.1688 C   0  0  0  0  0  0  0  0  0  0  0  0
    5.0696   -4.1281    0.7941 H   0  0  0  0  0  0  0  0  0  0  0  0
    5.8770   -3.6127   -0.6930 H   0  0  0  0  0  0  0  0  0  0  0  0
    4.2177   -4.2373   -0.7386 H   0  0  0  0  0  0  0  0  0  0  0  0
    4.1134   -1.4016   -1.2378 C   0  0  0  0  0  0  0  0  0  0  0  0
    2.8511   -0.7828   -0.9516 O   0  0  0  0  0  0  0  0  0  0  0  0
    5.1403   -0.3136   -1.5497 C   0  0  0  0  0  0  0  0  0  0  0  0
    6.1279   -0.7487   -1.6758 H   0  0  0  0  0  0  0  0  0  0  0  0
    4.8567    0.1888   -2.4711 H   0  0  0  0  0  0  0  0  0  0  0  0
    5.1596    0.4241   -0.7552 H   0  0  0  0  0  0  0  0  0  0  0  0
    3.9198   -2.2778   -2.4831 C   0  0  0  0  0  0  0  0  0  0  0  0
    3.1557   -3.0283   -2.3005 H   0  0  0  0  0  0  0  0  0  0  0  0
    3.5803   -1.6473   -3.3015 H   0  0  0  0  0  0  0  0  0  0  0  0
    4.8493   -2.7596   -2.7706 H   0  0  0  0  0  0  0  0  0  0  0  0
   -3.2504   -3.6767   -2.9578 H   0  0  0  0  0  0  0  0  0  0  0  0
   -5.1149    1.6243    1.0739 H   0  0  0  0  0  0  0  0  0  0  0  0
    0.2359   -1.6814    2.9603 C   0  0  0  0  0  0  0  0  0  0  0  0
   -1.0397   -2.0615    3.3327 C   0  0  0  0  0  0  0  0  0  0  0  0
    1.2309   -1.5301    3.9431 C   0  0  0  0  0  0  0  0  0  0  0  0
   -1.3498   -2.1845    4.6904 C   0  0  0  0  0  0  0  0  0  0  0  0
   -1.8087   -2.2718    2.6016 H   0  0  0  0  0  0  0  0  0  0  0  0
    0.9596   -1.6582    5.2885 C   0  0  0  0  0  0  0  0  0  0  0  0
    2.2378   -1.3159    3.6186 H   0  0  0  0  0  0  0  0  0  0  0  0
   -0.3433   -1.9709    5.6610 C   0  0  0  0  0  0  0  0  0  0  0  0
   -2.5356   -2.5171    5.4067 C   0  0  0  0  0  0  0  0  0  0  0  0
    1.7354   -1.5350    6.0310 H   0  0  0  0  0  0  0  0  0  0  0  0
   -0.9028   -2.1653    6.8920 N   0  0  0  0  0  0  0  0  0  0  0  0
   -2.2201   -2.4933    6.7316 C   0  0  0  0  0  0  0  0  0  0  0  0
   -3.4944   -2.7413    4.9809 H   0  0  0  0  0  0  0  0  0  0  0  0
   -0.4238   -2.0850    7.7721 H   0  0  0  0  0  0  0  0  0  0  0  0
   -2.8436   -2.6876    7.5835 H   0  0  0  0  0  0  0  0  0  0  0  0
  1  2  4  0  0  0  0
  2  3  4  0  0  0  0
  3  4  4  0  0  0  0
  4  5  4  0  0  0  0
  1  6  4  0  0  0  0
  5  6  4  0  0  0  0
  6  7  1  0  0  0  0
  5  8  1  0  0  0  0
  3  9  1  0  0  0  0
  2 10  1  0  0  0  0
 10 11  4  0  0  0  0
 11 12  4  0  0  0  0
 12 13  4  0  0  0  0
 13 14  4  0  0  0  0
 10 15  4  0  0  0  0
 14 15  4  0  0  0  0
 15 16  1  0  0  0  0
 13 17  1  0  0  0  0
 12 18  1  0  0  0  0
  1 19  1  0  0  0  0
 11 19  1  0  0  0  0
 19 20  1  0  0  0  0
 19 21  1  0  0  0  0
 21 22  1  0  0  0  0
 22 23  1  0  0  0  0
 23 24  1  0  0  0  0
 24 25  1  0  0  0  0
 24 26  1  0  0  0  0
 24 27  1  0  0  0  0
 23 28  1  0  0  0  0
 28 29  1  0  0  0  0
 28 30  1  0  0  0  0
 28 31  1  0  0  0  0
 23 32  1  0  0  0  0
 21 33  1  0  0  0  0
 32 33  1  0  0  0  0
 32 34  1  0  0  0  0
 34 35  1  0  0  0  0
 34 36  1  0  0  0  0
 34 37  1  0  0  0  0
 32 38  1  0  0  0  0
 38 39  1  0  0  0  0
 38 40  1  0  0  0  0
 38 41  1  0  0  0  0
 19 42  1  0  0  0  0
 42 43  1  0  0  0  0
 43 44  1  0  0  0  0
 44 45  1  0  0  0  0
 45 46  1  0  0  0  0
 45 47  1  0  0  0  0
 45 48  1  0  0  0  0
 44 49  1  0  0  0  0
 49 50  1  0  0  0  0
 49 51  1  0  0  0  0
 49 52  1  0  0  0  0
 44 53  1  0  0  0  0
 42 54  1  0  0  0  0
 53 54  1  0  0  0  0
 53 55  1  0  0  0  0
 55 56  1  0  0  0  0
 55 57  1  0  0  0  0
 55 58  1  0  0  0  0
 53 59  1  0  0  0  0
 59 60  1  0  0  0  0
 59 61  1  0  0  0  0
 59 62  1  0  0  0  0
 19 63  1  0  0  0  0
 63 64  1  0  0  0  0
 64 65  1  0  0  0  0
 65 66  1  0  0  0  0
 66 67  1  0  0  0  0
 66 68  1  0  0  0  0
 66 69  1  0  0  0  0
 65 70  1  0  0  0  0
 70 71  1  0  0  0  0
 70 72  1  0  0  0  0
 70 73  1  0  0  0  0
 65 74  1  0  0  0  0
 63 75  1  0  0  0  0
 74 75  1  0  0  0  0
 74 76  1  0  0  0  0
 76 77  1  0  0  0  0
 76 78  1  0  0  0  0
 76 79  1  0  0  0  0
 74 80  1  0  0  0  0
 80 81  1  0  0  0  0
 80 82  1  0  0  0  0
 80 83  1  0  0  0  0
  4 84  1  0  0  0  0
 14 85  1  0  0  0  0
 19 86  1  0  0  0  0
 20 86  1  0  0  0  0
 86 87  4  0  0  0  0
 86 88  4  0  0  0  0
 87 89  4  0  0  0  0
 87 90  1  0  0  0  0
 88 91  2  0  0  0  0
 88 92  1  0  0  0  0
 89 93  4  0  0  0  0
 91 93  4  0  0  0  0
 89 94  4  0  0  0  0
 91 95  1  0  0  0  0
 93 96  1  0  0  0  0
 94 97  2  0  0  0  0
 96 97  4  0  0  0  0
 94 98  1  0  0  0  0
 96 99  1  0  0  0  0
 97100  1  0  0  0  0
M  END
