
  xtb     10082107143D
 xtb: 6.4.0 (f63f532)
107115  0     0  0            999 V2000
   -0.9000   -2.0293   -0.3976 N   0  0  0  0  0  0  0  0  0  0  0  0
   -2.1511   -1.5614   -0.5684 C   0  0  0  0  0  0  0  0  0  0  0  0
   -2.9966   -2.1094   -1.5418 C   0  0  0  0  0  0  0  0  0  0  0  0
   -2.5460   -3.1342   -2.3441 C   0  0  0  0  0  0  0  0  0  0  0  0
   -1.2486   -3.6057   -2.1576 C   0  0  0  0  0  0  0  0  0  0  0  0
   -0.4766   -3.0215   -1.1755 C   0  0  0  0  0  0  0  0  0  0  0  0
    0.5337   -3.3579   -0.9897 H   0  0  0  0  0  0  0  0  0  0  0  0
   -0.8545   -4.4060   -2.7625 H   0  0  0  0  0  0  0  0  0  0  0  0
   -3.9973   -1.7327   -1.6759 H   0  0  0  0  0  0  0  0  0  0  0  0
   -2.5524   -0.4616    0.2999 C   0  0  0  0  0  0  0  0  0  0  0  0
   -1.6188   -0.0005    1.1599 N   0  0  0  0  0  0  0  0  0  0  0  0
   -1.9430    0.9970    1.9792 C   0  0  0  0  0  0  0  0  0  0  0  0
   -3.1843    1.5998    1.9930 C   0  0  0  0  0  0  0  0  0  0  0  0
   -4.1547    1.1440    1.1040 C   0  0  0  0  0  0  0  0  0  0  0  0
   -3.8313    0.1079    0.2551 C   0  0  0  0  0  0  0  0  0  0  0  0
   -4.5711   -0.2604   -0.4360 H   0  0  0  0  0  0  0  0  0  0  0  0
   -3.3945    2.3990    2.6853 H   0  0  0  0  0  0  0  0  0  0  0  0
   -1.1564    1.3209    2.6434 H   0  0  0  0  0  0  0  0  0  0  0  0
    0.4215   -0.8165    0.9133 Ir  0  0  0  0  0  0  0  0  0  0  0  0
    0.8726   -2.2303    1.5405 H   0  0  0  0  0  0  0  0  0  0  0  0
    0.3793    0.6236   -0.5986 B   0  0  0  0  0  0  0  0  0  0  0  0
   -0.3107    0.3507   -1.7683 O   0  0  0  0  0  0  0  0  0  0  0  0
   -0.4224    1.5372   -2.5601 C   0  0  0  0  0  0  0  0  0  0  0  0
   -0.2434    1.1906   -4.0359 C   0  0  0  0  0  0  0  0  0  0  0  0
    0.6654    0.6183   -4.1891 H   0  0  0  0  0  0  0  0  0  0  0  0
   -0.2088    2.0990   -4.6320 H   0  0  0  0  0  0  0  0  0  0  0  0
   -1.0855    0.5859   -4.3647 H   0  0  0  0  0  0  0  0  0  0  0  0
   -1.8368    2.0931   -2.3389 C   0  0  0  0  0  0  0  0  0  0  0  0
   -2.0122    2.9757   -2.9469 H   0  0  0  0  0  0  0  0  0  0  0  0
   -2.5590    1.3256   -2.6109 H   0  0  0  0  0  0  0  0  0  0  0  0
   -1.9831    2.3355   -1.2880 H   0  0  0  0  0  0  0  0  0  0  0  0
    0.6887    2.4547   -1.9537 C   0  0  0  0  0  0  0  0  0  0  0  0
    0.8463    1.9180   -0.6335 O   0  0  0  0  0  0  0  0  0  0  0  0
    2.0389    2.2858   -2.6611 C   0  0  0  0  0  0  0  0  0  0  0  0
    2.3178    1.2348   -2.6492 H   0  0  0  0  0  0  0  0  0  0  0  0
    2.0045    2.6622   -3.6795 H   0  0  0  0  0  0  0  0  0  0  0  0
    2.7942    2.8355   -2.1042 H   0  0  0  0  0  0  0  0  0  0  0  0
    0.3321    3.9378   -1.8782 C   0  0  0  0  0  0  0  0  0  0  0  0
   -0.5189    4.1060   -1.2254 H   0  0  0  0  0  0  0  0  0  0  0  0
    1.1804    4.4879   -1.4779 H   0  0  0  0  0  0  0  0  0  0  0  0
    0.1069    4.3170   -2.8718 H   0  0  0  0  0  0  0  0  0  0  0  0
    1.5420    0.6671    1.8580 B   0  0  0  0  0  0  0  0  0  0  0  0
    2.9071    0.8292    1.8714 O   0  0  0  0  0  0  0  0  0  0  0  0
    3.2462    2.1119    2.4175 C   0  0  0  0  0  0  0  0  0  0  0  0
    4.4918    1.9898    3.2941 C   0  0  0  0  0  0  0  0  0  0  0  0
    4.3702    1.2123    4.0408 H   0  0  0  0  0  0  0  0  0  0  0  0
    5.3427    1.7292    2.6699 H   0  0  0  0  0  0  0  0  0  0  0  0
    4.6958    2.9376    3.7850 H   0  0  0  0  0  0  0  0  0  0  0  0
    3.5462    3.0277    1.2247 C   0  0  0  0  0  0  0  0  0  0  0  0
    3.7941    4.0350    1.5460 H   0  0  0  0  0  0  0  0  0  0  0  0
    4.3881    2.6149    0.6734 H   0  0  0  0  0  0  0  0  0  0  0  0
    2.6845    3.0367    0.5622 H   0  0  0  0  0  0  0  0  0  0  0  0
    1.9395    2.5180    3.1814 C   0  0  0  0  0  0  0  0  0  0  0  0
    0.9465    1.6804    2.5760 O   0  0  0  0  0  0  0  0  0  0  0  0
    1.5306    3.9813    3.0216 C   0  0  0  0  0  0  0  0  0  0  0  0
    1.3085    4.2045    1.9835 H   0  0  0  0  0  0  0  0  0  0  0  0
    0.6351    4.1668    3.6098 H   0  0  0  0  0  0  0  0  0  0  0  0
    2.3234    4.6343    3.3766 H   0  0  0  0  0  0  0  0  0  0  0  0
    1.9797    2.1648    4.6738 C   0  0  0  0  0  0  0  0  0  0  0  0
    2.2188    1.1127    4.8000 H   0  0  0  0  0  0  0  0  0  0  0  0
    2.7034    2.7782    5.2017 H   0  0  0  0  0  0  0  0  0  0  0  0
    0.9939    2.3358    5.1002 H   0  0  0  0  0  0  0  0  0  0  0  0
    2.2782   -1.3309    0.1741 B   0  0  0  0  0  0  0  0  0  0  0  0
    3.1425   -2.2382    0.7490 O   0  0  0  0  0  0  0  0  0  0  0  0
    4.4204   -2.1921    0.1031 C   0  0  0  0  0  0  0  0  0  0  0  0
    5.3488   -1.4000    1.0301 C   0  0  0  0  0  0  0  0  0  0  0  0
    4.8948   -0.4363    1.2421 H   0  0  0  0  0  0  0  0  0  0  0  0
    5.4400   -1.9406    1.9688 H   0  0  0  0  0  0  0  0  0  0  0  0
    6.3361   -1.2750    0.5964 H   0  0  0  0  0  0  0  0  0  0  0  0
    4.9598   -3.6139   -0.0564 C   0  0  0  0  0  0  0  0  0  0  0  0
    5.1149   -4.0404    0.9311 H   0  0  0  0  0  0  0  0  0  0  0  0
    5.9079   -3.5974   -0.5865 H   0  0  0  0  0  0  0  0  0  0  0  0
    4.2576   -4.2471   -0.5883 H   0  0  0  0  0  0  0  0  0  0  0  0
    4.1059   -1.4447   -1.2423 C   0  0  0  0  0  0  0  0  0  0  0  0
    2.8307   -0.8376   -0.9849 O   0  0  0  0  0  0  0  0  0  0  0  0
    5.1073   -0.3524   -1.6154 C   0  0  0  0  0  0  0  0  0  0  0  0
    6.1045   -0.7709   -1.7198 H   0  0  0  0  0  0  0  0  0  0  0  0
    4.8120    0.0922   -2.5625 H   0  0  0  0  0  0  0  0  0  0  0  0
    5.1106    0.4278   -0.8622 H   0  0  0  0  0  0  0  0  0  0  0  0
    3.9285   -2.3906   -2.4378 C   0  0  0  0  0  0  0  0  0  0  0  0
    3.1830   -3.1480   -2.2126 H   0  0  0  0  0  0  0  0  0  0  0  0
    3.5734   -1.8133   -3.2882 H   0  0  0  0  0  0  0  0  0  0  0  0
    4.8684   -2.8659   -2.7016 H   0  0  0  0  0  0  0  0  0  0  0  0
   -3.1859   -3.5606   -3.1018 H   0  0  0  0  0  0  0  0  0  0  0  0
   -5.1384    1.5880    1.0818 H   0  0  0  0  0  0  0  0  0  0  0  0
    0.2359   -1.6814    2.9603 C   0  0  0  0  0  0  0  0  0  0  0  0
   -1.0475   -2.0597    3.3429 C   0  0  0  0  0  0  0  0  0  0  0  0
    1.1954   -1.5124    3.9556 C   0  0  0  0  0  0  0  0  0  0  0  0
   -1.3985   -2.1724    4.6820 C   0  0  0  0  0  0  0  0  0  0  0  0
   -1.8006   -2.2746    2.5961 H   0  0  0  0  0  0  0  0  0  0  0  0
    0.8558   -1.6297    5.2930 C   0  0  0  0  0  0  0  0  0  0  0  0
    2.2120   -1.2892    3.6704 H   0  0  0  0  0  0  0  0  0  0  0  0
   -0.4409   -1.9454    5.6614 C   0  0  0  0  0  0  0  0  0  0  0  0
   -2.8138   -2.5197    5.0819 C   0  0  0  0  0  0  0  0  0  0  0  0
    1.6060   -1.4819    6.0572 H   0  0  0  0  0  0  0  0  0  0  0  0
   -0.7094   -2.0254    6.7050 H   0  0  0  0  0  0  0  0  0  0  0  0
   -3.4034   -1.4649    5.8705 N   0  0  0  0  0  0  0  0  0  0  0  0
   -2.8238   -3.4334    5.6833 H   0  0  0  0  0  0  0  0  0  0  0  0
   -3.4209   -2.6886    4.1847 H   0  0  0  0  0  0  0  0  0  0  0  0
   -3.5331   -0.1752    5.4671 C   0  0  0  0  0  0  0  0  0  0  0  0
   -3.8921   -1.5798    7.1307 C   0  0  0  0  0  0  0  0  0  0  0  0
   -4.1154    0.5421    6.4777 C   0  0  0  0  0  0  0  0  0  0  0  0
   -3.1933    0.1352    4.4978 H   0  0  0  0  0  0  0  0  0  0  0  0
   -4.3460   -0.3540    7.5392 C   0  0  0  0  0  0  0  0  0  0  0  0
   -3.8872   -2.5209    7.6460 H   0  0  0  0  0  0  0  0  0  0  0  0
   -4.3519    1.5888    6.4640 H   0  0  0  0  0  0  0  0  0  0  0  0
   -4.7915   -0.1228    8.4877 H   0  0  0  0  0  0  0  0  0  0  0  0
  1  2  4  0  0  0  0
  2  3  4  0  0  0  0
  3  4  4  0  0  0  0
  4  5  4  0  0  0  0
  1  6  4  0  0  0  0
  5  6  4  0  0  0  0
  6  7  1  0  0  0  0
  5  8  1  0  0  0  0
  3  9  1  0  0  0  0
  2 10  1  0  0  0  0
 10 11  4  0  0  0  0
 11 12  4  0  0  0  0
 12 13  4  0  0  0  0
 13 14  4  0  0  0  0
 10 15  4  0  0  0  0
 14 15  4  0  0  0  0
 15 16  1  0  0  0  0
 13 17  1  0  0  0  0
 12 18  1  0  0  0  0
  1 19  1  0  0  0  0
 11 19  1  0  0  0  0
 19 20  1  0  0  0  0
 19 21  1  0  0  0  0
 21 22  1  0  0  0  0
 22 23  1  0  0  0  0
 23 24  1  0  0  0  0
 24 25  1  0  0  0  0
 24 26  1  0  0  0  0
 24 27  1  0  0  0  0
 23 28  1  0  0  0  0
 28 29  1  0  0  0  0
 28 30  1  0  0  0  0
 28 31  1  0  0  0  0
 23 32  1  0  0  0  0
 21 33  1  0  0  0  0
 32 33  1  0  0  0  0
 32 34  1  0  0  0  0
 34 35  1  0  0  0  0
 34 36  1  0  0  0  0
 34 37  1  0  0  0  0
 32 38  1  0  0  0  0
 38 39  1  0  0  0  0
 38 40  1  0  0  0  0
 38 41  1  0  0  0  0
 19 42  1  0  0  0  0
 42 43  1  0  0  0  0
 43 44  1  0  0  0  0
 44 45  1  0  0  0  0
 45 46  1  0  0  0  0
 45 47  1  0  0  0  0
 45 48  1  0  0  0  0
 44 49  1  0  0  0  0
 49 50  1  0  0  0  0
 49 51  1  0  0  0  0
 49 52  1  0  0  0  0
 44 53  1  0  0  0  0
 42 54  1  0  0  0  0
 53 54  1  0  0  0  0
 53 55  1  0  0  0  0
 55 56  1  0  0  0  0
 55 57  1  0  0  0  0
 55 58  1  0  0  0  0
 53 59  1  0  0  0  0
 59 60  1  0  0  0  0
 59 61  1  0  0  0  0
 59 62  1  0  0  0  0
 19 63  1  0  0  0  0
 63 64  1  0  0  0  0
 64 65  1  0  0  0  0
 65 66  1  0  0  0  0
 66 67  1  0  0  0  0
 66 68  1  0  0  0  0
 66 69  1  0  0  0  0
 65 70  1  0  0  0  0
 70 71  1  0  0  0  0
 70 72  1  0  0  0  0
 70 73  1  0  0  0  0
 65 74  1  0  0  0  0
 63 75  1  0  0  0  0
 74 75  1  0  0  0  0
 74 76  1  0  0  0  0
 76 77  1  0  0  0  0
 76 78  1  0  0  0  0
 76 79  1  0  0  0  0
 74 80  1  0  0  0  0
 80 81  1  0  0  0  0
 80 82  1  0  0  0  0
 80 83  1  0  0  0  0
  4 84  1  0  0  0  0
 14 85  1  0  0  0  0
 19 86  1  0  0  0  0
 20 86  1  0  0  0  0
 86 87  4  0  0  0  0
 86 88  4  0  0  0  0
 87 89  4  0  0  0  0
 87 90  1  0  0  0  0
 88 91  4  0  0  0  0
 88 92  1  0  0  0  0
 89 93  4  0  0  0  0
 91 93  4  0  0  0  0
 89 94  1  0  0  0  0
 91 95  1  0  0  0  0
 93 96  1  0  0  0  0
 94 97  1  0  0  0  0
 94 98  1  0  0  0  0
 94 99  1  0  0  0  0
 97100  4  0  0  0  0
 97101  4  0  0  0  0
100102  2  0  0  0  0
100103  1  0  0  0  0
101104  2  0  0  0  0
102104  4  0  0  0  0
101105  1  0  0  0  0
102106  1  0  0  0  0
104107  1  0  0  0  0
M  END
