
  xtb     01142213283D
 xtb: 6.4.1 (1a32961)
 99106  0     0  0            999 V2000
   -0.9499   -2.0400   -0.3564 N   0  0  0  0  0  0  0  0  0  0  0  0
   -2.1911   -1.5529   -0.5222 C   0  0  0  0  0  0  0  0  0  0  0  0
   -3.0555   -2.0977   -1.4788 C   0  0  0  0  0  0  0  0  0  0  0  0
   -2.6320   -3.1479   -2.2656 C   0  0  0  0  0  0  0  0  0  0  0  0
   -1.3454   -3.6431   -2.0805 C   0  0  0  0  0  0  0  0  0  0  0  0
   -0.5514   -3.0543   -1.1170 C   0  0  0  0  0  0  0  0  0  0  0  0
    0.4539   -3.4060   -0.9337 H   0  0  0  0  0  0  0  0  0  0  0  0
   -0.9732   -4.4639   -2.6712 H   0  0  0  0  0  0  0  0  0  0  0  0
   -4.0479   -1.7015   -1.6144 H   0  0  0  0  0  0  0  0  0  0  0  0
   -2.5693   -0.4311    0.3355 C   0  0  0  0  0  0  0  0  0  0  0  0
   -1.6164    0.0487    1.1590 N   0  0  0  0  0  0  0  0  0  0  0  0
   -1.9140    1.0703    1.9565 C   0  0  0  0  0  0  0  0  0  0  0  0
   -3.1554    1.6749    1.9892 C   0  0  0  0  0  0  0  0  0  0  0  0
   -4.1495    1.1924    1.1448 C   0  0  0  0  0  0  0  0  0  0  0  0
   -3.8493    0.1341    0.3126 C   0  0  0  0  0  0  0  0  0  0  0  0
   -4.6093   -0.2530   -0.3449 H   0  0  0  0  0  0  0  0  0  0  0  0
   -3.3436    2.4954    2.6622 H   0  0  0  0  0  0  0  0  0  0  0  0
   -1.1065    1.4147    2.5841 H   0  0  0  0  0  0  0  0  0  0  0  0
    0.4215   -0.8165    0.9133 Ir  0  0  0  0  0  0  0  0  0  0  0  0
    0.8726   -2.2303    1.5405 H   0  0  0  0  0  0  0  0  0  0  0  0
    0.3942    0.5767   -0.6347 B   0  0  0  0  0  0  0  0  0  0  0  0
   -0.2398    0.2725   -1.8239 O   0  0  0  0  0  0  0  0  0  0  0  0
   -0.3345    1.4463   -2.6402 C   0  0  0  0  0  0  0  0  0  0  0  0
   -0.0765    1.0814   -4.0996 C   0  0  0  0  0  0  0  0  0  0  0  0
    0.8441    0.5158   -4.1957 H   0  0  0  0  0  0  0  0  0  0  0  0
   -0.0185    1.9819   -4.7052 H   0  0  0  0  0  0  0  0  0  0  0  0
   -0.8947    0.4653   -4.4646 H   0  0  0  0  0  0  0  0  0  0  0  0
   -1.7679    1.9767   -2.4946 C   0  0  0  0  0  0  0  0  0  0  0  0
   -1.9305    2.8451   -3.1257 H   0  0  0  0  0  0  0  0  0  0  0  0
   -2.4606    1.1901   -2.7873 H   0  0  0  0  0  0  0  0  0  0  0  0
   -1.9683    2.2337   -1.4563 H   0  0  0  0  0  0  0  0  0  0  0  0
    0.7301    2.3940   -1.9964 C   0  0  0  0  0  0  0  0  0  0  0  0
    0.8364    1.8775   -0.6614 O   0  0  0  0  0  0  0  0  0  0  0  0
    2.1147    2.2404   -2.6373 C   0  0  0  0  0  0  0  0  0  0  0  0
    2.4142    1.1962   -2.5900 H   0  0  0  0  0  0  0  0  0  0  0  0
    2.1191    2.5953   -3.6637 H   0  0  0  0  0  0  0  0  0  0  0  0
    2.8316    2.8182   -2.0590 H   0  0  0  0  0  0  0  0  0  0  0  0
    0.3429    3.8707   -1.9581 C   0  0  0  0  0  0  0  0  0  0  0  0
   -0.5405    4.0320   -1.3483 H   0  0  0  0  0  0  0  0  0  0  0  0
    1.1612    4.4425   -1.5273 H   0  0  0  0  0  0  0  0  0  0  0  0
    0.1575    4.2315   -2.9665 H   0  0  0  0  0  0  0  0  0  0  0  0
    1.5750    0.6499    1.8500 B   0  0  0  0  0  0  0  0  0  0  0  0
    2.9351    0.8164    1.8344 O   0  0  0  0  0  0  0  0  0  0  0  0
    3.2818    2.0958    2.3892 C   0  0  0  0  0  0  0  0  0  0  0  0
    4.5455    1.9689    3.2380 C   0  0  0  0  0  0  0  0  0  0  0  0
    4.4464    1.1837    3.9800 H   0  0  0  0  0  0  0  0  0  0  0  0
    5.3848    1.7209    2.5936 H   0  0  0  0  0  0  0  0  0  0  0  0
    4.7546    2.9116    3.7359 H   0  0  0  0  0  0  0  0  0  0  0  0
    3.5534    3.0227    1.1990 C   0  0  0  0  0  0  0  0  0  0  0  0
    3.8059    4.0271    1.5247 H   0  0  0  0  0  0  0  0  0  0  0  0
    4.3847    2.6166    0.6273 H   0  0  0  0  0  0  0  0  0  0  0  0
    2.6786    3.0357    0.5542 H   0  0  0  0  0  0  0  0  0  0  0  0
    1.9896    2.4891    3.1850 C   0  0  0  0  0  0  0  0  0  0  0  0
    0.9888    1.6379    2.6055 O   0  0  0  0  0  0  0  0  0  0  0  0
    1.5567    3.9456    3.0283 C   0  0  0  0  0  0  0  0  0  0  0  0
    1.3030    4.1593    1.9954 H   0  0  0  0  0  0  0  0  0  0  0  0
    0.6755    4.1223    3.6402 H   0  0  0  0  0  0  0  0  0  0  0  0
    2.3498    4.6107    3.3581 H   0  0  0  0  0  0  0  0  0  0  0  0
    2.0693    2.1461    4.6772 C   0  0  0  0  0  0  0  0  0  0  0  0
    2.3573    1.1080    4.8128 H   0  0  0  0  0  0  0  0  0  0  0  0
    2.7785    2.7889    5.1889 H   0  0  0  0  0  0  0  0  0  0  0  0
    1.0860    2.2833    5.1214 H   0  0  0  0  0  0  0  0  0  0  0  0
    2.2782   -1.3309    0.1741 B   0  0  0  0  0  0  0  0  0  0  0  0
    3.1099   -2.2570    0.7643 O   0  0  0  0  0  0  0  0  0  0  0  0
    4.4031   -2.2366    0.1434 C   0  0  0  0  0  0  0  0  0  0  0  0
    5.3322   -1.4821    1.1001 C   0  0  0  0  0  0  0  0  0  0  0  0
    4.9033   -0.5074    1.3128 H   0  0  0  0  0  0  0  0  0  0  0  0
    5.3877   -2.0356    2.0341 H   0  0  0  0  0  0  0  0  0  0  0  0
    6.3320   -1.3819    0.6899 H   0  0  0  0  0  0  0  0  0  0  0  0
    4.9064   -3.6705   -0.0237 C   0  0  0  0  0  0  0  0  0  0  0  0
    5.0283   -4.1140    0.9610 H   0  0  0  0  0  0  0  0  0  0  0  0
    5.8662   -3.6734   -0.5320 H   0  0  0  0  0  0  0  0  0  0  0  0
    4.1995   -4.2772   -0.5797 H   0  0  0  0  0  0  0  0  0  0  0  0
    4.1342   -1.4646   -1.1984 C   0  0  0  0  0  0  0  0  0  0  0  0
    2.8628   -0.8359   -0.9628 O   0  0  0  0  0  0  0  0  0  0  0  0
    5.1632   -0.3856   -1.5312 C   0  0  0  0  0  0  0  0  0  0  0  0
    6.1541   -0.8215   -1.6206 H   0  0  0  0  0  0  0  0  0  0  0  0
    4.8971    0.0795   -2.4771 H   0  0  0  0  0  0  0  0  0  0  0  0
    5.1647    0.3819   -0.7652 H   0  0  0  0  0  0  0  0  0  0  0  0
    3.9648   -2.3885   -2.4114 C   0  0  0  0  0  0  0  0  0  0  0  0
    3.1963   -3.1311   -2.2162 H   0  0  0  0  0  0  0  0  0  0  0  0
    3.6444   -1.7903   -3.2609 H   0  0  0  0  0  0  0  0  0  0  0  0
    4.8996   -2.8816   -2.6594 H   0  0  0  0  0  0  0  0  0  0  0  0
   -3.2873   -3.5734   -3.0102 H   0  0  0  0  0  0  0  0  0  0  0  0
   -5.1348    1.6331    1.1389 H   0  0  0  0  0  0  0  0  0  0  0  0
    0.2359   -1.6814    2.9603 C   0  0  0  0  0  0  0  0  0  0  0  0
   -1.0507   -2.0567    3.3497 C   0  0  0  0  0  0  0  0  0  0  0  0
    1.2053   -1.5378    3.9542 C   0  0  0  0  0  0  0  0  0  0  0  0
   -1.3750   -2.1866    4.6931 C   0  0  0  0  0  0  0  0  0  0  0  0
   -1.8142   -2.2521    2.6122 H   0  0  0  0  0  0  0  0  0  0  0  0
    0.8637   -1.6824    5.2843 C   0  0  0  0  0  0  0  0  0  0  0  0
    2.2223   -1.3166    3.6703 H   0  0  0  0  0  0  0  0  0  0  0  0
   -0.4247   -1.9898    5.6884 C   0  0  0  0  0  0  0  0  0  0  0  0
   -2.7755   -2.5171    5.1058 C   0  0  0  0  0  0  0  0  0  0  0  0
    2.2022   -1.4638    6.6232 Br  0  0  0  0  0  0  0  0  0  0  0  0
   -0.6816   -2.0924    6.7309 H   0  0  0  0  0  0  0  0  0  0  0  0
   -3.5277   -3.0239    4.1133 F   0  0  0  0  0  0  0  0  0  0  0  0
   -2.8359   -3.4137    6.1100 F   0  0  0  0  0  0  0  0  0  0  0  0
   -3.4531   -1.4332    5.5539 F   0  0  0  0  0  0  0  0  0  0  0  0
  1  2  4  0  0  0  0
  2  3  4  0  0  0  0
  3  4  4  0  0  0  0
  4  5  4  0  0  0  0
  1  6  4  0  0  0  0
  5  6  4  0  0  0  0
  6  7  1  0  0  0  0
  5  8  1  0  0  0  0
  3  9  1  0  0  0  0
  2 10  1  0  0  0  0
 10 11  4  0  0  0  0
 11 12  4  0  0  0  0
 12 13  4  0  0  0  0
 13 14  4  0  0  0  0
 10 15  4  0  0  0  0
 14 15  4  0  0  0  0
 15 16  1  0  0  0  0
 13 17  1  0  0  0  0
 12 18  1  0  0  0  0
  1 19  1  0  0  0  0
 11 19  1  0  0  0  0
 19 20  1  0  0  0  0
 19 21  1  0  0  0  0
 21 22  1  0  0  0  0
 22 23  1  0  0  0  0
 23 24  1  0  0  0  0
 24 25  1  0  0  0  0
 24 26  1  0  0  0  0
 24 27  1  0  0  0  0
 23 28  1  0  0  0  0
 28 29  1  0  0  0  0
 28 30  1  0  0  0  0
 28 31  1  0  0  0  0
 23 32  1  0  0  0  0
 21 33  1  0  0  0  0
 32 33  1  0  0  0  0
 32 34  1  0  0  0  0
 34 35  1  0  0  0  0
 34 36  1  0  0  0  0
 34 37  1  0  0  0  0
 32 38  1  0  0  0  0
 38 39  1  0  0  0  0
 38 40  1  0  0  0  0
 38 41  1  0  0  0  0
 19 42  1  0  0  0  0
 42 43  1  0  0  0  0
 43 44  1  0  0  0  0
 44 45  1  0  0  0  0
 45 46  1  0  0  0  0
 45 47  1  0  0  0  0
 45 48  1  0  0  0  0
 44 49  1  0  0  0  0
 49 50  1  0  0  0  0
 49 51  1  0  0  0  0
 49 52  1  0  0  0  0
 44 53  1  0  0  0  0
 42 54  1  0  0  0  0
 53 54  1  0  0  0  0
 53 55  1  0  0  0  0
 55 56  1  0  0  0  0
 55 57  1  0  0  0  0
 55 58  1  0  0  0  0
 53 59  1  0  0  0  0
 59 60  1  0  0  0  0
 59 61  1  0  0  0  0
 59 62  1  0  0  0  0
 19 63  1  0  0  0  0
 63 64  1  0  0  0  0
 64 65  1  0  0  0  0
 65 66  1  0  0  0  0
 66 67  1  0  0  0  0
 66 68  1  0  0  0  0
 66 69  1  0  0  0  0
 65 70  1  0  0  0  0
 70 71  1  0  0  0  0
 70 72  1  0  0  0  0
 70 73  1  0  0  0  0
 65 74  1  0  0  0  0
 63 75  1  0  0  0  0
 74 75  1  0  0  0  0
 74 76  1  0  0  0  0
 76 77  1  0  0  0  0
 76 78  1  0  0  0  0
 76 79  1  0  0  0  0
 74 80  1  0  0  0  0
 80 81  1  0  0  0  0
 80 82  1  0  0  0  0
 80 83  1  0  0  0  0
  4 84  1  0  0  0  0
 14 85  1  0  0  0  0
 19 86  1  0  0  0  0
 20 86  1  0  0  0  0
 86 87  4  0  0  0  0
 86 88  4  0  0  0  0
 87 89  4  0  0  0  0
 87 90  1  0  0  0  0
 88 91  4  0  0  0  0
 88 92  1  0  0  0  0
 89 93  4  0  0  0  0
 91 93  4  0  0  0  0
 89 94  1  0  0  0  0
 91 95  1  0  0  0  0
 93 96  1  0  0  0  0
 94 97  1  0  0  0  0
 94 98  1  0  0  0  0
 94 99  1  0  0  0  0
M  END
