
  xtb     10082107313D
 xtb: 6.4.0 (f63f532)
105112  0     0  0            999 V2000
   -0.9043   -1.9671   -0.4428 N   0  0  0  0  0  0  0  0  0  0  0  0
   -2.1468   -1.4705   -0.5942 C   0  0  0  0  0  0  0  0  0  0  0  0
   -2.9802   -1.9175   -1.6267 C   0  0  0  0  0  0  0  0  0  0  0  0
   -2.5325   -2.8852   -2.4993 C   0  0  0  0  0  0  0  0  0  0  0  0
   -1.2495   -3.3974   -2.3243 C   0  0  0  0  0  0  0  0  0  0  0  0
   -0.4837   -2.9032   -1.2893 C   0  0  0  0  0  0  0  0  0  0  0  0
    0.5189   -3.2681   -1.1167 H   0  0  0  0  0  0  0  0  0  0  0  0
   -0.8590   -4.1582   -2.9804 H   0  0  0  0  0  0  0  0  0  0  0  0
   -3.9659   -1.5017   -1.7553 H   0  0  0  0  0  0  0  0  0  0  0  0
   -2.5505   -0.4410    0.3562 C   0  0  0  0  0  0  0  0  0  0  0  0
   -1.5981    0.0054    1.2017 N   0  0  0  0  0  0  0  0  0  0  0  0
   -1.9182    0.9498    2.0832 C   0  0  0  0  0  0  0  0  0  0  0  0
   -3.1793    1.5001    2.1869 C   0  0  0  0  0  0  0  0  0  0  0  0
   -4.1748    1.0463    1.3256 C   0  0  0  0  0  0  0  0  0  0  0  0
   -3.8526    0.0722    0.4054 C   0  0  0  0  0  0  0  0  0  0  0  0
   -4.6116   -0.2979   -0.2637 H   0  0  0  0  0  0  0  0  0  0  0  0
   -3.3830    2.2582    2.9256 H   0  0  0  0  0  0  0  0  0  0  0  0
   -1.1115    1.2753    2.7218 H   0  0  0  0  0  0  0  0  0  0  0  0
    0.4215   -0.8165    0.9133 Ir  0  0  0  0  0  0  0  0  0  0  0  0
    0.8726   -2.2303    1.5405 H   0  0  0  0  0  0  0  0  0  0  0  0
    0.4094    0.6612   -0.5677 B   0  0  0  0  0  0  0  0  0  0  0  0
   -0.3690    0.5000   -1.7021 O   0  0  0  0  0  0  0  0  0  0  0  0
   -0.4545    1.7387   -2.4158 C   0  0  0  0  0  0  0  0  0  0  0  0
   -0.4033    1.4748   -3.9185 C   0  0  0  0  0  0  0  0  0  0  0  0
    0.4605    0.8713   -4.1767 H   0  0  0  0  0  0  0  0  0  0  0  0
   -0.3671    2.4159   -4.4613 H   0  0  0  0  0  0  0  0  0  0  0  0
   -1.2979    0.9319   -4.2150 H   0  0  0  0  0  0  0  0  0  0  0  0
   -1.8102    2.3661   -2.0594 C   0  0  0  0  0  0  0  0  0  0  0  0
   -1.9677    3.2956   -2.5984 H   0  0  0  0  0  0  0  0  0  0  0  0
   -2.5989    1.6643   -2.3244 H   0  0  0  0  0  0  0  0  0  0  0  0
   -1.8670    2.5476   -0.9878 H   0  0  0  0  0  0  0  0  0  0  0  0
    0.7543    2.5466   -1.8405 C   0  0  0  0  0  0  0  0  0  0  0  0
    0.9698    1.9165   -0.5703 O   0  0  0  0  0  0  0  0  0  0  0  0
    2.0371    2.3461   -2.6563 C   0  0  0  0  0  0  0  0  0  0  0  0
    2.2519    1.2825   -2.7286 H   0  0  0  0  0  0  0  0  0  0  0  0
    1.9512    2.7870   -3.6453 H   0  0  0  0  0  0  0  0  0  0  0  0
    2.8634    2.8161   -2.1281 H   0  0  0  0  0  0  0  0  0  0  0  0
    0.5003    4.0399   -1.6435 C   0  0  0  0  0  0  0  0  0  0  0  0
   -0.2818    4.2118   -0.9103 H   0  0  0  0  0  0  0  0  0  0  0  0
    1.4117    4.5116   -1.2835 H   0  0  0  0  0  0  0  0  0  0  0  0
    0.2197    4.4985   -2.5881 H   0  0  0  0  0  0  0  0  0  0  0  0
    1.5654    0.6443    1.8743 B   0  0  0  0  0  0  0  0  0  0  0  0
    2.9323    0.7523    1.9198 O   0  0  0  0  0  0  0  0  0  0  0  0
    3.3165    2.0224    2.4663 C   0  0  0  0  0  0  0  0  0  0  0  0
    4.5062    1.8372    3.4079 C   0  0  0  0  0  0  0  0  0  0  0  0
    4.2926    1.1008    4.1753 H   0  0  0  0  0  0  0  0  0  0  0  0
    5.3611    1.4867    2.8354 H   0  0  0  0  0  0  0  0  0  0  0  0
    4.7629    2.7832    3.8766 H   0  0  0  0  0  0  0  0  0  0  0  0
    3.7376    2.8955    1.2781 C   0  0  0  0  0  0  0  0  0  0  0  0
    4.0100    3.8978    1.5946 H   0  0  0  0  0  0  0  0  0  0  0  0
    4.5960    2.4334    0.7955 H   0  0  0  0  0  0  0  0  0  0  0  0
    2.9243    2.9276    0.5579 H   0  0  0  0  0  0  0  0  0  0  0  0
    1.9978    2.5190    3.1570 C   0  0  0  0  0  0  0  0  0  0  0  0
    0.9903    1.6863    2.5647 O   0  0  0  0  0  0  0  0  0  0  0  0
    1.6472    3.9821    2.8900 C   0  0  0  0  0  0  0  0  0  0  0  0
    1.4736    4.1418    1.8309 H   0  0  0  0  0  0  0  0  0  0  0  0
    0.7354    4.2330    3.4268 H   0  0  0  0  0  0  0  0  0  0  0  0
    2.4468    4.6314    3.2356 H   0  0  0  0  0  0  0  0  0  0  0  0
    1.9686    2.2617    4.6684 C   0  0  0  0  0  0  0  0  0  0  0  0
    2.1636    1.2138    4.8762 H   0  0  0  0  0  0  0  0  0  0  0  0
    2.6988    2.8764    5.1853 H   0  0  0  0  0  0  0  0  0  0  0  0
    0.9768    2.4999    5.0465 H   0  0  0  0  0  0  0  0  0  0  0  0
    2.2782   -1.3309    0.1741 B   0  0  0  0  0  0  0  0  0  0  0  0
    3.1624   -2.2186    0.7479 O   0  0  0  0  0  0  0  0  0  0  0  0
    4.4203   -2.1881    0.0608 C   0  0  0  0  0  0  0  0  0  0  0  0
    5.3767   -1.3693    0.9343 C   0  0  0  0  0  0  0  0  0  0  0  0
    4.9307   -0.3986    1.1297 H   0  0  0  0  0  0  0  0  0  0  0  0
    5.4955   -1.8794    1.8870 H   0  0  0  0  0  0  0  0  0  0  0  0
    6.3506   -1.2599    0.4674 H   0  0  0  0  0  0  0  0  0  0  0  0
    4.9582   -3.6126   -0.0780 C   0  0  0  0  0  0  0  0  0  0  0  0
    5.1572   -4.0087    0.9143 H   0  0  0  0  0  0  0  0  0  0  0  0
    5.8831   -3.6089   -0.6479 H   0  0  0  0  0  0  0  0  0  0  0  0
    4.2370   -4.2638   -0.5605 H   0  0  0  0  0  0  0  0  0  0  0  0
    4.0617   -1.4792   -1.2942 C   0  0  0  0  0  0  0  0  0  0  0  0
    2.7959   -0.8636   -1.0118 O   0  0  0  0  0  0  0  0  0  0  0  0
    5.0507   -0.4005   -1.7338 C   0  0  0  0  0  0  0  0  0  0  0  0
    6.0441   -0.8230   -1.8557 H   0  0  0  0  0  0  0  0  0  0  0  0
    4.7256    0.0128   -2.6853 H   0  0  0  0  0  0  0  0  0  0  0  0
    5.0783    0.4045   -1.0077 H   0  0  0  0  0  0  0  0  0  0  0  0
    3.8420   -2.4591   -2.4548 C   0  0  0  0  0  0  0  0  0  0  0  0
    3.1110   -3.2139   -2.1788 H   0  0  0  0  0  0  0  0  0  0  0  0
    3.4498   -1.9075   -3.3058 H   0  0  0  0  0  0  0  0  0  0  0  0
    4.7733   -2.9375   -2.7423 H   0  0  0  0  0  0  0  0  0  0  0  0
   -3.1633   -3.2357   -3.3018 H   0  0  0  0  0  0  0  0  0  0  0  0
   -5.1766    1.4450    1.3770 H   0  0  0  0  0  0  0  0  0  0  0  0
    0.2359   -1.6814    2.9603 C   0  0  0  0  0  0  0  0  0  0  0  0
   -1.0189   -2.1089    3.3872 C   0  0  0  0  0  0  0  0  0  0  0  0
    1.2219   -1.5290    3.9312 C   0  0  0  0  0  0  0  0  0  0  0  0
   -1.2935   -2.2898    4.7309 C   0  0  0  0  0  0  0  0  0  0  0  0
   -1.8014   -2.3143    2.6702 H   0  0  0  0  0  0  0  0  0  0  0  0
    0.9260   -1.7143    5.2684 C   0  0  0  0  0  0  0  0  0  0  0  0
    2.2259   -1.2731    3.6291 H   0  0  0  0  0  0  0  0  0  0  0  0
   -0.3349   -2.0889    5.7201 C   0  0  0  0  0  0  0  0  0  0  0  0
   -2.2816   -2.6133    5.0235 H   0  0  0  0  0  0  0  0  0  0  0  0
    2.3784   -1.4583    6.5010 Br  0  0  0  0  0  0  0  0  0  0  0  0
   -0.6635   -2.3320    7.1724 C   0  0  0  0  0  0  0  0  0  0  0  0
   -1.9266   -1.5837    7.6043 C   0  0  0  0  0  0  0  0  0  0  0  0
   -0.8067   -3.8358    7.4298 C   0  0  0  0  0  0  0  0  0  0  0  0
    0.1644   -1.9638    7.7862 H   0  0  0  0  0  0  0  0  0  0  0  0
   -2.8101   -1.9882    7.1171 H   0  0  0  0  0  0  0  0  0  0  0  0
   -1.8468   -0.5276    7.3561 H   0  0  0  0  0  0  0  0  0  0  0  0
   -2.0587   -1.6772    8.6798 H   0  0  0  0  0  0  0  0  0  0  0  0
   -1.6251   -4.2489    6.8442 H   0  0  0  0  0  0  0  0  0  0  0  0
   -1.0054   -4.0175    8.4835 H   0  0  0  0  0  0  0  0  0  0  0  0
    0.1087   -4.3572    7.1565 H   0  0  0  0  0  0  0  0  0  0  0  0
  1  2  4  0  0  0  0
  2  3  4  0  0  0  0
  3  4  4  0  0  0  0
  4  5  4  0  0  0  0
  1  6  4  0  0  0  0
  5  6  4  0  0  0  0
  6  7  1  0  0  0  0
  5  8  1  0  0  0  0
  3  9  1  0  0  0  0
  2 10  1  0  0  0  0
 10 11  4  0  0  0  0
 11 12  4  0  0  0  0
 12 13  4  0  0  0  0
 13 14  4  0  0  0  0
 10 15  4  0  0  0  0
 14 15  4  0  0  0  0
 15 16  1  0  0  0  0
 13 17  1  0  0  0  0
 12 18  1  0  0  0  0
  1 19  1  0  0  0  0
 11 19  1  0  0  0  0
 19 20  1  0  0  0  0
 19 21  1  0  0  0  0
 21 22  1  0  0  0  0
 22 23  1  0  0  0  0
 23 24  1  0  0  0  0
 24 25  1  0  0  0  0
 24 26  1  0  0  0  0
 24 27  1  0  0  0  0
 23 28  1  0  0  0  0
 28 29  1  0  0  0  0
 28 30  1  0  0  0  0
 28 31  1  0  0  0  0
 23 32  1  0  0  0  0
 21 33  1  0  0  0  0
 32 33  1  0  0  0  0
 32 34  1  0  0  0  0
 34 35  1  0  0  0  0
 34 36  1  0  0  0  0
 34 37  1  0  0  0  0
 32 38  1  0  0  0  0
 38 39  1  0  0  0  0
 38 40  1  0  0  0  0
 38 41  1  0  0  0  0
 19 42  1  0  0  0  0
 42 43  1  0  0  0  0
 43 44  1  0  0  0  0
 44 45  1  0  0  0  0
 45 46  1  0  0  0  0
 45 47  1  0  0  0  0
 45 48  1  0  0  0  0
 44 49  1  0  0  0  0
 49 50  1  0  0  0  0
 49 51  1  0  0  0  0
 49 52  1  0  0  0  0
 44 53  1  0  0  0  0
 42 54  1  0  0  0  0
 53 54  1  0  0  0  0
 53 55  1  0  0  0  0
 55 56  1  0  0  0  0
 55 57  1  0  0  0  0
 55 58  1  0  0  0  0
 53 59  1  0  0  0  0
 59 60  1  0  0  0  0
 59 61  1  0  0  0  0
 59 62  1  0  0  0  0
 19 63  1  0  0  0  0
 63 64  1  0  0  0  0
 64 65  1  0  0  0  0
 65 66  1  0  0  0  0
 66 67  1  0  0  0  0
 66 68  1  0  0  0  0
 66 69  1  0  0  0  0
 65 70  1  0  0  0  0
 70 71  1  0  0  0  0
 70 72  1  0  0  0  0
 70 73  1  0  0  0  0
 65 74  1  0  0  0  0
 63 75  1  0  0  0  0
 74 75  1  0  0  0  0
 74 76  1  0  0  0  0
 76 77  1  0  0  0  0
 76 78  1  0  0  0  0
 76 79  1  0  0  0  0
 74 80  1  0  0  0  0
 80 81  1  0  0  0  0
 80 82  1  0  0  0  0
 80 83  1  0  0  0  0
  4 84  1  0  0  0  0
 14 85  1  0  0  0  0
 19 86  1  0  0  0  0
 20 86  1  0  0  0  0
 86 87  4  0  0  0  0
 86 88  4  0  0  0  0
 87 89  4  0  0  0  0
 87 90  1  0  0  0  0
 88 91  4  0  0  0  0
 88 92  1  0  0  0  0
 89 93  4  0  0  0  0
 91 93  4  0  0  0  0
 89 94  1  0  0  0  0
 91 95  1  0  0  0  0
 93 96  1  0  0  0  0
 96 97  1  0  0  0  0
 96 98  1  0  0  0  0
 96 99  1  0  0  0  0
 97100  1  0  0  0  0
 97101  1  0  0  0  0
 97102  1  0  0  0  0
 98103  1  0  0  0  0
 98104  1  0  0  0  0
 98105  1  0  0  0  0
M  END
