   11
Created with kallisto
C      1.0535   -0.6307   -0.0032
N     -0.2471   -1.0352   -0.0020
C      1.0235    0.7418    0.0002
N     -1.1240   -0.0188    0.0030
H     -0.6098   -1.9839   -0.0034
C     -0.3555    1.0907    0.0054
H      1.8720    1.4133    0.0008
C     -0.9304    2.4830    0.0151
F      0.0478    3.4328    0.0038
F     -1.7148    2.7329   -1.0674
F     -1.6850    2.7283    1.1196
