
  xtb     01142213293D
 xtb: 6.4.1 (1a32961)
 15 15  0     0  0            999 V2000
    0.9844   -0.0108   -0.0046 C   0  0  0  0  0  0  0  0  0  0  0  0
    2.4840   -0.0037   -0.0109 C   0  0  0  0  0  0  0  0  0  0  0  0
    0.2689   -1.2009   -0.0022 C   0  0  0  0  0  0  0  0  0  0  0  0
   -1.1161   -1.1955    0.0031 C   0  0  0  0  0  0  0  0  0  0  0  0
   -1.8067    0.0039    0.0061 C   0  0  0  0  0  0  0  0  0  0  0  0
   -1.1036    1.1980    0.0038 C   0  0  0  0  0  0  0  0  0  0  0  0
    0.2794    1.1887   -0.0013 C   0  0  0  0  0  0  0  0  0  0  0  0
    2.8782   -1.0166    0.0016 H   0  0  0  0  0  0  0  0  0  0  0  0
    2.8636    0.5297    0.8597 H   0  0  0  0  0  0  0  0  0  0  0  0
    2.8563    0.5043   -0.8998 H   0  0  0  0  0  0  0  0  0  0  0  0
    0.7997   -2.1429   -0.0047 H   0  0  0  0  0  0  0  0  0  0  0  0
   -1.6569   -2.1312    0.0053 H   0  0  0  0  0  0  0  0  0  0  0  0
   -2.8869    0.0095    0.0111 H   0  0  0  0  0  0  0  0  0  0  0  0
   -1.6358    2.1386    0.0066 H   0  0  0  0  0  0  0  0  0  0  0  0
    0.8236    2.1229   -0.0030 H   0  0  0  0  0  0  0  0  0  0  0  0
  1  2  1  0  0  0  0
  1  3  4  0  0  0  0
  3  4  4  0  0  0  0
  4  5  4  0  0  0  0
  5  6  4  0  0  0  0
  1  7  4  0  0  0  0
  6  7  4  0  0  0  0
  2  8  1  0  0  0  0
  2  9  1  0  0  0  0
  2 10  1  0  0  0  0
  3 11  1  0  0  0  0
  4 12  1  0  0  0  0
  5 13  1  0  0  0  0
  6 14  1  0  0  0  0
  7 15  1  0  0  0  0
M  END
